@<TRIPOS>MOLECULE
*****
 34 35 0 0 0
SMALL
GASTEIGER

@<TRIPOS>ATOM
   1 N    0.0000    0.0000    0.0000 N
   2 H    1.2990   -0.6068   -0.4408 H
   3 H   -0.7500   -0.4014   -1.2355 H
   4 H    0.7500    1.2990    0.0000 H
   5 C   -0.0000   -0.8817    1.2135 C
   6 H    0.4021    0.2874    2.0629 H
   7 C    1.2579   -1.4621    0.6385 C
   8 O    1.3172   -1.6158   -1.5506 O
   9 C   -1.2515   -1.0408    2.0250 C
  10 H   -1.4540    0.2173    2.8162 H
  11 H   -2.4262   -1.7954    1.4767 H
  12 H   -1.1804   -1.8302    3.2985 H
  13 N    2.7105   -1.8095    0.7780 N
  14 C    2.5117   -3.2756    0.5312 C
  15 H    3.4666   -0.6938    1.4365 H
  16 H    2.5271   -3.9753    1.8578 H
  17 C    1.6995   -2.9599   -0.6897 C
  18 O    0.2505   -2.5968   -0.5533 O
  19 C    3.7063   -3.7593   -0.2363 C
  20 H    4.8965   -2.8825    0.0177 H
  21 H    3.8949   -5.2267   -0.4836 H
  22 H    3.8262   -3.4958   -1.7081 H
  23 N    2.3152   -1.5723   -1.7295 N
  24 C    3.8090   -1.4690   -1.6397 C
  25 H    1.6700   -2.0218   -3.0068 H
  26 H    3.1084   -2.6868   -1.1141 H
  27 C    3.6756   -0.1494   -0.9390 C
  28 O    2.4231    0.3768   -0.3031 O
  29 C    5.1542   -1.4819   -2.3031 C
  30 H    6.3108   -1.6360   -1.3605 H
  31 H    4.9507   -0.1628   -2.9877 H
  32 H    4.8127   -2.6189   -3.2198 H
  33 O    4.8590    0.7661   -0.8323 O
  34 H    5.8970    0.1940    0.0870 H

@<TRIPOS>BOND
   1   1   2   1
   1   1   3   1
   1   1   4   1
   1   1   5   1
   1   2   8   4
   1   2  28   4
   1   5   6   1
   1   5   7   1
   1   5   9   1
   1   7   8   2
   1   7  13   1
   1   9  10   1
   1   9  11   1
   1   9  12   1
   1  13  14   1
   1  13  15   1
   1  14  16   1
   1  14  17   1
   1  14  19   1
   1  17  18   2
   1  17  23   1
   1  19  20   1
   1  19  21   1
   1  19  22   1
   1  23  24   1
   1  23  25   1
   1  24  26   1
   1  24  27   1
   1  24  29   1
   1  27  28   2
   1  27  33   1
   1  29  30   1
   1  29  31   1
   1  29  32   1
   1  33  34   1
