@<TRIPOS>MOLECULE
*****
 34 35 0 0 0
SMALL
GASTEIGER

@<TRIPOS>ATOM
   1 N    0.0000    0.0000    0.0000 N
   2 H   -0.0000    0.8817   -1.2135 H
   3 H    0.7500   -1.0509   -0.7636 H
   4 H    0.7500    0.4014    1.2355 H
   5 C   -1.5000    0.0000    0.0000 C
   6 H   -1.9408   -0.0956   -1.4306 H
   7 C   -1.3760    1.4885   -0.1377 C
   8 O   -1.2990    1.1134   -1.9268 O
   9 C   -1.6240   -1.4885    0.1377 C
  10 H   -2.2586   -1.8538    1.4468 H
  11 H   -1.9564   -2.3015   -1.0783 H
  12 H   -0.4648   -2.4273    0.2954 H
  13 N   -0.3411    2.2313    0.6544 N
  14 C    1.0549    2.1136    0.1183 C
  15 H   -0.6049    3.0435    1.8876 H
  16 H    1.3429    2.4728   -1.3092 H
  17 C    2.1998    3.0194    0.4628 C
  18 O    3.2316    2.5786    1.4584 O
  19 C    1.9432    0.9960    0.5786 C
  20 H    2.6906    0.1562   -0.4144 H
  21 H    1.3426   -0.2428    1.1742 H
  22 H    2.8094    1.1596    1.7923 H
  23 N    1.0881    3.4752   -0.4905 N
  24 C    1.5590    3.9926   -1.8173 C
  25 H    1.2423    4.5186    0.5761 H
  26 H    2.9327    4.5565   -2.0293 H
  27 C    1.2990    2.7020   -2.5360 C
  28 O    1.2990    1.4884   -1.6544 O
  29 C    0.8584    5.2339   -2.2848 C
  30 H   -0.5735    5.4871   -1.9166 H
  31 H    0.5148    5.4000   -3.7354 H
  32 H    1.2776    6.4231   -1.4723 H
  33 O    1.0517    2.5591   -4.0086 O
  34 H    2.2650    1.9029   -4.5978 H

@<TRIPOS>BOND
   1   1   2   1
   1   1   3   1
   1   1   4   1
   1   1   5   1
   1   2   8   4
   1   2  28   4
   1   5   6   1
   1   5   7   1
   1   5   9   1
   1   7   8   2
   1   7  13   1
   1   9  10   1
   1   9  11   1
   1   9  12   1
   1  13  14   1
   1  13  15   1
   1  14  16   1
   1  14  17   1
   1  14  19   1
   1  17  18   2
   1  17  23   1
   1  19  20   1
   1  19  21   1
   1  19  22   1
   1  23  24   1
   1  23  25   1
   1  24  26   1
   1  24  27   1
   1  24  29   1
   1  27  28   2
   1  27  33   1
   1  29  30   1
   1  29  31   1
   1  29  32   1
   1  33  34   1
