@<TRIPOS>MOLECULE
*****
 34 35 0 0 0
SMALL
GASTEIGER

@<TRIPOS>ATOM
   1 N    0.0000    0.0000    0.0000 N
   2 H   -0.8713    0.3773    1.1612 H
   3 H    0.8713    0.9878   -0.7177 H
   4 H    0.7500   -1.0509    0.7636 H
   5 C   -0.7500   -0.4014   -1.2355 C
   6 H   -0.7500    1.0252   -1.6990 H
   7 C   -1.7666   -0.1807   -0.1548 C
   8 O   -2.3009    0.7686    0.9302 O
   9 C   -0.1142   -1.2963   -2.2577 C
  10 H    1.0977   -0.6470   -2.8575 H
  11 H    1.2440   -1.7446   -1.8058 H
  12 H   -0.9663   -2.2077   -3.0904 H
  13 N   -3.2285   -0.4894   -0.2869 N
  14 C   -4.1085   -0.4860    0.9279 C
  15 H   -3.9377   -0.8168   -1.5674 H
  16 H   -5.0999    0.6380    0.8674 H
  17 C   -2.8962   -0.3885    1.8058 C
  18 O   -1.7748   -1.3721    1.6480 O
  19 C   -5.1320   -1.5375    1.2392 C
  20 H   -4.7471   -2.8548    0.6337 H
  21 H   -4.9430   -1.2871    2.7061 H
  22 H   -6.5792   -1.1626    1.3616 H
  23 N   -2.2309    0.8211    3.1129 N
  24 C   -1.7476    2.2249    3.3273 C
  25 H   -2.3306   -0.6030    3.5731 H
  26 H   -1.6293    3.2578    2.2462 H
  27 C   -0.3696    1.6625    3.1409 C
  28 O   -0.1881    0.3207    2.4954 O
  29 C   -2.0592    2.9534    4.6010 C
  30 H   -3.2932    2.3974    5.2475 H
  31 H   -1.8123    4.4315    4.6669 H
  32 H   -0.6736    2.8229    5.1606 H
  33 O    0.9079    2.3327    3.5516 O
  34 H    2.0922    1.6550    2.9284 H

@<TRIPOS>BOND
   1   1   2   1
   1   1   3   1
   1   1   4   1
   1   1   5   1
   1   2   8   4
   1   2  28   4
   1   5   6   1
   1   5   7   1
   1   5   9   1
   1   7   8   2
   1   7  13   1
   1   9  10   1
   1   9  11   1
   1   9  12   1
   1  13  14   1
   1  13  15   1
   1  14  16   1
   1  14  17   1
   1  14  19   1
   1  17  18   2
   1  17  23   1
   1  19  20   1
   1  19  21   1
   1  19  22   1
   1  23  24   1
   1  23  25   1
   1  24  26   1
   1  24  27   1
   1  24  29   1
   1  27  28   2
   1  27  33   1
   1  29  30   1
   1  29  31   1
   1  29  32   1
   1  33  34   1
