@<TRIPOS>MOLECULE
*****
 34 35 0 0 0
SMALL
GASTEIGER

@<TRIPOS>ATOM
   1 N    0.0000    0.0000    0.0000 N
   2 H   -0.7500   -0.4014    1.2355 H
   3 H    0.8713    0.9878    0.7177 H
   4 H    1.5000    0.0000    0.0000 H
   5 C   -1.2990   -0.7500    0.0000 C
   6 H   -1.0827   -2.0517    0.7133 H
   7 C   -2.3827   -1.3440    0.8502 C
   8 O   -2.1720    0.0737    1.2814 O
   9 C   -1.6740   -0.1005   -1.2990 C
  10 H   -2.4232   -0.8196   -2.3814 H
  11 H   -2.4395    1.0127   -0.6472 H
  12 H   -0.5105    0.2425   -2.1813 H
  13 N   -3.4957   -2.2202    0.3568 N
  14 C   -3.4644   -2.4939   -1.1177 C
  15 H   -4.5828   -2.8093    1.2060 H
  16 H   -4.9090   -2.1466   -1.3236 H
  17 C   -2.0197   -2.8412   -0.9118 C
  18 O   -1.0349   -2.6443   -2.0260 O
  19 C   -3.2885   -3.9741   -0.9501 C
  20 H   -2.0773   -4.4565   -1.6920 H
  21 H   -4.7025   -4.3099   -1.3211 H
  22 H   -2.7323   -4.5375    0.3240 H
  23 N   -1.4690   -3.4148    0.4689 N
  24 C   -0.0082   -3.2402    0.7612 C
  25 H   -1.5447   -4.5039    1.4974 H
  26 H    1.2763   -3.7970    1.2998 H
  27 C   -0.4664   -2.6506    2.0622 C
  28 O   -0.1918   -1.2084    2.3700 O
  29 C    0.8490   -2.5256   -0.2410 C
  30 H    1.6258   -1.4670    0.4843 H
  31 H    2.1322   -3.1720   -0.6719 H
  32 H   -0.0755   -1.8218   -1.1897 H
  33 O   -1.2060   -3.3865    3.1399 O
  34 H   -0.9050   -4.8551    3.0884 H

@<TRIPOS>BOND
   1   1   2   1
   1   1   3   1
   1   1   4   1
   1   1   5   1
   1   2   8   4
   1   2  28   4
   1   5   6   1
   1   5   7   1
   1   5   9   1
   1   7   8   2
   1   7  13   1
   1   9  10   1
   1   9  11   1
   1   9  12   1
   1  13  14   1
   1  13  15   1
   1  14  16   1
   1  14  17   1
   1  14  19   1
   1  17  18   2
   1  17  23   1
   1  19  20   1
   1  19  21   1
   1  19  22   1
   1  23  24   1
   1  23  25   1
   1  24  26   1
   1  24  27   1
   1  24  29   1
   1  27  28   2
   1  27  33   1
   1  29  30   1
   1  29  31   1
   1  29  32   1
   1  33  34   1
