@<TRIPOS>MOLECULE
*****
 34 35 0 0 0
SMALL
GASTEIGER

@<TRIPOS>ATOM
   1 N    0.0000    0.0000    0.0000 N
   2 H   -1.2990   -0.2318   -0.7133 H
   3 H   -0.0000   -0.8817    1.2135 H
   4 H    1.2990    0.2318   -0.7133 H
   5 C   -0.7500    1.0509    0.7636 C
   6 H   -0.8771    0.5891    2.1850 H
   7 C   -2.1359    1.1061    0.1924 C
   8 O   -2.5256   -0.4998    0.1075 O
   9 C   -0.0027    2.2668    1.2254 C
  10 H    1.0368    2.0285    0.1706 H
  11 H    0.6191    2.3083    2.5898 H
  12 H   -1.1993    3.1182    0.9203 H
  13 N   -2.8507    2.4246    0.1694 N
  14 C   -2.2477    3.4427   -0.7525 C
  15 H   -4.0702    2.7688    0.9720 H
  16 H   -1.7828    4.2389    0.4307 H
  17 C   -3.2816    3.9971   -1.6873 C
  18 O   -3.1571    5.4218   -2.1397 O
  19 C   -0.8270    3.2924   -1.2096 C
  20 H   -0.7174    3.4949   -2.6918 H
  21 H   -0.0642    2.0009   -1.2040 H
  22 H    0.2738    3.8022   -0.3272 H
  23 N   -3.0265    2.7835   -2.1477 N
  24 C   -2.6740    1.7869   -3.2119 C
  25 H   -3.8727    3.9242   -1.6652 H
  26 H   -3.4003    0.4945   -3.4406 H
  27 C   -1.3537    1.1374   -2.9207 C
  28 O   -1.3080   -0.1841   -2.2125 O
  29 C   -3.0293    2.0946   -4.6364 C
  30 H   -4.0164    3.1766   -4.9605 H
  31 H   -3.8388    1.1168   -5.4355 H
  32 H   -1.9425    2.8875   -5.2998 H
  33 O   -0.0092    1.6969   -3.2801 O
  34 H    0.7158    0.7834   -4.2235 H

@<TRIPOS>BOND
   1   1   2   1
   1   1   3   1
   1   1   4   1
   1   1   5   1
   1   2   8   4
   1   2  28   4
   1   5   6   1
   1   5   7   1
   1   5   9   1
   1   7   8   2
   1   7  13   1
   1   9  10   1
   1   9  11   1
   1   9  12   1
   1  13  14   1
   1  13  15   1
   1  14  16   1
   1  14  17   1
   1  14  19   1
   1  17  18   2
   1  17  23   1
   1  19  20   1
   1  19  21   1
   1  19  22   1
   1  23  24   1
   1  23  25   1
   1  24  26   1
   1  24  27   1
   1  24  29   1
   1  27  28   2
   1  27  33   1
   1  29  30   1
   1  29  31   1
   1  29  32   1
   1  33  34   1
