@<TRIPOS>MOLECULE
*****
 34 35 0 0 0
SMALL
GASTEIGER

@<TRIPOS>ATOM
   1 N    0.0000    0.0000    0.0000 N
   2 H    0.7500   -1.0509    0.7636 H
   3 H    0.7500    1.2990    0.0000 H
   4 H   -0.7500   -0.4014   -1.2355 H
   5 C   -1.2990   -0.2318    0.7133 C
   6 H   -1.2990   -1.6583    0.2498 H
   7 C   -0.4774   -0.1756    1.9670 C
   8 O    1.3763    0.0140    1.6142 O
   9 C   -2.1207    0.5506   -0.2680 C
  10 H   -2.8601   -0.1891   -1.3432 H
  11 H   -3.3590    1.1681    0.3109 H
  12 H   -1.5824    1.8512   -0.7863 H
  13 N   -0.3887   -0.0174    3.4560 N
  14 C   -1.4500   -0.4136    4.4391 C
  15 H    0.8397    0.5811    4.0747 H
  16 H   -0.4057   -1.0428    5.3129 H
  17 C   -1.1333   -0.1739    2.9927 C
  18 O   -2.2405    0.0941    2.0169 O
  19 C   -2.8816   -0.8266    4.6122 C
  20 H   -3.6678   -0.5694    3.3609 H
  21 H   -3.2243   -1.9967    5.4860 H
  22 H   -3.5429   -0.6029    5.9399 H
  23 N    0.3782   -1.7662    3.1750 N
  24 C    0.7376   -3.2141    3.0187 C
  25 H    1.2700   -0.7308    3.7935 H
  26 H    2.1797   -3.6083    3.1410 H
  27 C    0.7766   -3.5263    1.5521 C
  28 O    0.3884   -2.4894    0.5401 O
  29 C   -0.3856   -4.0134    3.6098 C
  30 H   -1.4690   -3.1575    3.0235 H
  31 H   -0.6377   -5.4646    3.3261 H
  32 H   -0.3558   -4.3062    5.0807 H
  33 O    1.2109   -4.8942    1.1157 O
  34 H    0.9319   -5.1398   -0.3375 H

@<TRIPOS>BOND
   1   1   2   1
   1   1   3   1
   1   1   4   1
   1   1   5   1
   1   2   8   4
   1   2  28   4
   1   5   6   1
   1   5   7   1
   1   5   9   1
   1   7   8   2
   1   7  13   1
   1   9  10   1
   1   9  11   1
   1   9  12   1
   1  13  14   1
   1  13  15   1
   1  14  16   1
   1  14  17   1
   1  14  19   1
   1  17  18   2
   1  17  23   1
   1  19  20   1
   1  19  21   1
   1  19  22   1
   1  23  24   1
   1  23  25   1
   1  24  26   1
   1  24  27   1
   1  24  29   1
   1  27  28   2
   1  27  33   1
   1  29  30   1
   1  29  31   1
   1  29  32   1
   1  33  34   1
