@<TRIPOS>MOLECULE
*****
 34 35 0 0 0
SMALL
GASTEIGER

@<TRIPOS>ATOM
   1 N    0.0000    0.0000    0.0000 N
   2 H   -0.7500   -0.4014    1.2355 H
   3 H   -0.7500    1.0509   -0.7636 H
   4 H    1.2990    0.7500    0.0000 H
   5 C   -0.8713   -0.9878   -0.7177 C
   6 H   -0.1668   -2.1853   -0.1524 H
   7 C   -1.4931    0.1166    0.0847 C
   8 O   -2.2418   -0.5344    1.3189 O
   9 C   -0.9258   -0.9484   -2.2162 C
  10 H    0.3638   -0.3451   -2.6885 H
  11 H   -2.2469   -0.6832   -2.8752 H
  12 H   -0.9602   -2.3622   -2.7161 H
  13 N   -1.7483    1.5908    0.1918 N
  14 C   -3.0687    2.0585    0.7283 C
  15 H   -0.7021    2.5795   -0.2300 H
  16 H   -3.6739    3.0965   -0.1697 H
  17 C   -2.4061    2.4541    2.0145 C
  18 O   -3.2397    2.7896    3.2155 O
  19 C   -4.3069    1.2143    0.7940 C
  20 H   -4.1097   -0.0825    0.0664 H
  21 H   -5.5993    1.5458    0.1086 H
  22 H   -4.6516    0.4605    2.0442 H
  23 N   -0.8397    2.2712    2.4647 N
  24 C   -1.0794    1.3199    3.5994 C
  25 H    0.1305    3.4127    2.5405 H
  26 H   -2.4022    0.6244    3.7283 H
  27 C   -0.3782   -0.0053    3.6459 C
  28 O    0.1872   -0.5992    2.3898 O
  29 C   -0.3381    1.7553    4.8285 C
  30 H    0.9494    0.9994    4.9729 H
  31 H   -1.0968    2.1845    6.0493 H
  32 H   -0.3737    3.2032    5.2189 H
  33 O   -0.1726   -0.8396    4.8754 O
  34 H    1.1318   -0.5385    5.5521 H

@<TRIPOS>BOND
   1   1   2   1
   1   1   3   1
   1   1   4   1
   1   1   5   1
   1   2   8   4
   1   2  28   4
   1   5   6   1
   1   5   7   1
   1   5   9   1
   1   7   8   2
   1   7  13   1
   1   9  10   1
   1   9  11   1
   1   9  12   1
   1  13  14   1
   1  13  15   1
   1  14  16   1
   1  14  17   1
   1  14  19   1
   1  17  18   2
   1  17  23   1
   1  19  20   1
   1  19  21   1
   1  19  22   1
   1  23  24   1
   1  23  25   1
   1  24  26   1
   1  24  27   1
   1  24  29   1
   1  27  28   2
   1  27  33   1
   1  29  30   1
   1  29  31   1
   1  29  32   1
   1  33  34   1
