@<TRIPOS>MOLECULE
*****
 34 35 0 0 0
SMALL
GASTEIGER

@<TRIPOS>ATOM
   1 N    0.0000    0.0000    0.0000 N
   2 H   -0.0000   -0.8817    1.2135 H
   3 H    0.7500    1.2990    0.0000 H
   4 H    0.7500   -1.0509   -0.7636 H
   5 C   -1.5000    0.0000    0.0000 C
   6 H   -1.9408   -0.2727   -1.4076 H
   7 C   -1.9635   -1.1541    0.8385 C
   8 O   -0.7177   -2.1930    1.3378 O
   9 C   -1.5000    1.3703    0.6101 C
  10 H   -0.8802    1.7122    1.9326 H
  11 H   -2.7541    2.0557    0.1546 H
  12 H   -0.7424    2.0078   -0.5167 H
  13 N   -2.4271   -2.3083    1.6771 N
  14 C   -2.3183   -2.3995    3.1703 C
  15 H   -3.0418   -3.4342    0.8997 H
  16 H   -1.1706   -1.4340    3.1457 H
  17 C   -2.0610   -3.8732    3.0615 C
  18 O   -1.4483   -4.6146    4.2127 O
  19 C   -3.4241   -1.8940    4.0487 C
  20 H   -4.3897   -1.0556    3.2646 H
  21 H   -3.9557   -2.7892    5.1286 H
  22 H   -2.5067   -1.3651    5.1111 H
  23 N   -0.7641   -2.7964    2.6422 N
  24 C   -0.0062   -2.1025    3.7350 C
  25 H   -0.6730   -3.7078    1.4544 H
  26 H   -0.7343   -1.3733    4.8250 H
  27 C    1.3084   -1.6720    3.1549 C
  28 O    0.7636   -0.4723    2.4380 O
  29 C    0.5865   -2.9317    4.8355 C
  30 H    0.8621   -4.3890    4.6113 H
  31 H    1.6010   -2.3318    5.7634 H
  32 H   -0.1297   -3.3705    6.0783 H
  33 O    2.7840   -1.8809    2.9847 O
  34 H    3.4589   -2.0399    4.3148 H

@<TRIPOS>BOND
   1   1   2   1
   1   1   3   1
   1   1   4   1
   1   1   5   1
   1   2   8   4
   1   2  28   4
   1   5   6   1
   1   5   7   1
   1   5   9   1
   1   7   8   2
   1   7  13   1
   1   9  10   1
   1   9  11   1
   1   9  12   1
   1  13  14   1
   1  13  15   1
   1  14  16   1
   1  14  17   1
   1  14  19   1
   1  17  18   2
   1  17  23   1
   1  19  20   1
   1  19  21   1
   1  19  22   1
   1  23  24   1
   1  23  25   1
   1  24  26   1
   1  24  27   1
   1  24  29   1
   1  27  28   2
   1  27  33   1
   1  29  30   1
   1  29  31   1
   1  29  32   1
   1  33  34   1
