@<TRIPOS>MOLECULE
*****
 34 35 0 0 0
SMALL
GASTEIGER

@<TRIPOS>ATOM
   1 N    0.0000    0.0000    0.0000 N
   2 H   -1.5000    0.0000    0.0000 H
   3 H    0.7500    0.4014   -1.2355 H
   4 H   -0.7500   -1.2990    0.0000 H
   5 C   -0.7500    1.0509    0.7636 C
   6 H   -0.7500    0.1693    1.9771 H
   7 C   -2.0351    1.3994    0.0729 C
   8 O   -2.3713    0.3773    1.1612 O
   9 C   -0.3012    2.4741    0.9159 C
  10 H    1.1046    2.7910    1.3323 H
  11 H   -0.7742    3.6111    0.0593 H
  12 H   -0.8134    3.0625    2.1970 H
  13 N   -2.0227    1.8207   -1.3667 N
  14 C   -1.0115    1.1983   -2.2833 C
  15 H   -2.9719    2.8338   -1.9345 H
  16 H    0.3784    1.6272   -1.9169 H
  17 C   -1.5129   -0.1654   -1.9105 C
  18 O   -0.5181   -1.2672   -1.6952 O
  19 C   -0.8645    1.5311   -3.7385 C
  20 H   -1.6504    0.7368   -4.7392 H
  21 H   -1.5476    2.7335   -4.3196 H
  22 H    0.4781    1.0230   -4.1735 H
  23 N   -3.5040    0.1644   -2.9239 N
  24 C   -4.5821   -0.4078   -2.0519 C
  25 H   -3.4605   -0.1766   -4.3839 H
  26 H   -5.8567    0.3829   -2.0394 H
  27 C   -3.6934   -0.5369   -0.8504 C
  28 O   -2.2500   -0.4014   -1.2355 O
  29 C   -5.2497   -1.6839   -2.4714 C
  30 H   -6.7402   -1.5755   -2.3426 H
  31 H   -5.2841   -2.2027   -3.8784 H
  32 H   -4.5886   -2.9886   -2.1388 H
  33 O   -4.1848   -0.7224    0.5546 O
  34 H   -5.2702    0.2617    0.8763 H

@<TRIPOS>BOND
   1   1   2   1
   1   1   3   1
   1   1   4   1
   1   1   5   1
   1   2   8   4
   1   2  28   4
   1   5   6   1
   1   5   7   1
   1   5   9   1
   1   7   8   2
   1   7  13   1
   1   9  10   1
   1   9  11   1
   1   9  12   1
   1  13  14   1
   1  13  15   1
   1  14  16   1
   1  14  17   1
   1  14  19   1
   1  17  18   2
   1  17  23   1
   1  19  20   1
   1  19  21   1
   1  19  22   1
   1  23  24   1
   1  23  25   1
   1  24  26   1
   1  24  27   1
   1  24  29   1
   1  27  28   2
   1  27  33   1
   1  29  30   1
   1  29  31   1
   1  29  32   1
   1  33  34   1
