@<TRIPOS>MOLECULE
*****
 34 35 0 0 0
SMALL
GASTEIGER

@<TRIPOS>ATOM
   1 N    0.0000    0.0000    0.0000 N
   2 H   -0.8713    0.3773    1.1612 H
   3 H   -0.7500   -0.4014   -1.2355 H
   4 H    0.7500    1.2990    0.0000 H
   5 C    0.7500   -1.0509    0.7636 C
   6 H    0.6617   -2.3796    0.0729 H
   7 C   -0.0838   -0.7643    1.9771 C
   8 O   -1.6338    1.6689    1.1383 O
   9 C    2.2418   -1.0892    0.9159 C
  10 H    2.8255   -1.6690    2.1701 H
  11 H    3.0467    0.0854    0.4442 H
  12 H    2.9341   -2.0657    0.0120 H
  13 N    0.3179   -1.3197    3.3113 N
  14 C   -0.1572   -0.6766    4.5805 C
  15 H    1.2020   -2.5282    3.4005 H
  16 H   -0.8988   -1.9305    4.9381 H
  17 C   -0.7807    0.3489    3.6808 C
  18 O    0.0840    1.1874    2.7869 O
  19 C    1.2213   -0.4257    5.1160 C
  20 H    2.0900   -1.6366    4.9460 H
  21 H    0.7468    0.1015    6.4377 H
  22 H    1.8311    0.9326    4.9339 H
  23 N   -2.3542    2.2103    1.9135 N
  24 C   -3.0504    1.2709    2.8530 C
  25 H   -3.0970    3.3764    1.3316 H
  26 H   -3.4691    1.6210    4.2502 H
  27 C   -2.1359    0.1585    3.2727 C
  28 O   -1.0704   -0.4402    2.4030 O
  29 C   -4.1182    1.0352    1.8263 C
  30 H   -4.7071   -0.1515    2.5298 H
  31 H   -3.5343    1.0013    0.4450 H
  32 H   -5.4647    1.6652    2.0263 H
  33 O   -2.1281   -0.4673    4.6360 O
  34 H   -2.9054    0.3657    5.6116 H

@<TRIPOS>BOND
   1   1   2   1
   1   1   3   1
   1   1   4   1
   1   1   5   1
   1   2   8   4
   1   2  28   4
   1   5   6   1
   1   5   7   1
   1   5   9   1
   1   7   8   2
   1   7  13   1
   1   9  10   1
   1   9  11   1
   1   9  12   1
   1  13  14   1
   1  13  15   1
   1  14  16   1
   1  14  17   1
   1  14  19   1
   1  17  18   2
   1  17  23   1
   1  19  20   1
   1  19  21   1
   1  19  22   1
   1  23  24   1
   1  23  25   1
   1  24  26   1
   1  24  27   1
   1  24  29   1
   1  27  28   2
   1  27  33   1
   1  29  30   1
   1  29  31   1
   1  29  32   1
   1  33  34   1
