@<TRIPOS>MOLECULE
*****
 34 35 0 0 0
SMALL
GASTEIGER

@<TRIPOS>ATOM
   1 N    0.0000    0.0000    0.0000 N
   2 H   -0.7500   -0.4014   -1.2355 H
   3 H    1.2990    0.2318   -0.7133 H
   4 H   -0.0000    0.8817    1.2135 H
   5 C   -0.0000   -0.8817    1.2135 C
   6 H    0.7500    0.1693    1.9771 H
   7 C   -1.5000   -0.8817    1.2135 C
   8 O   -2.0444   -0.2914   -0.4855 O
   9 C    1.2990   -1.6317    1.2135 C
  10 H    2.0217   -2.0805    2.4490 H
  11 H    0.7639   -2.8067    0.4500 H
  12 H    1.8342   -0.4567    0.4500 H
  13 N   -2.3216   -0.0993    0.2323 N
  14 C   -3.8083   -0.2909    0.1779 C
  15 H   -1.5315    0.8373   -0.6329 H
  16 H   -4.6586   -0.0125    1.3819 H
  17 C   -3.9152    0.8224   -0.8217 C
  18 O   -4.2762    2.2058   -0.3679 O
  19 C   -3.6094   -1.7022   -0.2897 C
  20 H   -2.9141   -1.3002   -1.5565 H
  21 H   -2.8793   -2.7320    0.5205 H
  22 H   -4.8699   -2.5100   -0.3822 H
  23 N   -3.3635    0.7544   -2.1203 N
  24 C   -2.1301    0.9683   -2.9468 C
  25 H   -4.8500    0.9454   -2.1818 H
  26 H   -0.9909    1.7897   -2.4199 H
  27 C   -1.2805   -0.2217   -3.2815 C
  28 O   -0.0027   -0.4650   -2.5345 O
  29 C   -2.9342    1.7468   -3.9454 C
  30 H   -3.9354    2.6266   -3.2572 H
  31 H   -2.3844    2.8398   -4.8131 H
  32 H   -3.3192    1.0862   -5.2359 H
  33 O   -1.8248   -1.0847   -4.3811 O
  34 H   -2.4945   -0.2515   -5.4334 H

@<TRIPOS>BOND
   1   1   2   1
   1   1   3   1
   1   1   4   1
   1   1   5   1
   1   2   8   4
   1   2  28   4
   1   5   6   1
   1   5   7   1
   1   5   9   1
   1   7   8   2
   1   7  13   1
   1   9  10   1
   1   9  11   1
   1   9  12   1
   1  13  14   1
   1  13  15   1
   1  14  16   1
   1  14  17   1
   1  14  19   1
   1  17  18   2
   1  17  23   1
   1  19  20   1
   1  19  21   1
   1  19  22   1
   1  23  24   1
   1  23  25   1
   1  24  26   1
   1  24  27   1
   1  24  29   1
   1  27  28   2
   1  27  33   1
   1  29  30   1
   1  29  31   1
   1  29  32   1
   1  33  34   1
