@<TRIPOS>MOLECULE
*****
 34 35 0 0 0
SMALL
GASTEIGER

@<TRIPOS>ATOM
   1 N    0.0000    0.0000    0.0000 N
   2 H    0.8713    0.9878   -0.7177 H
   3 H    0.7500   -1.0509   -0.7636 H
   4 H   -1.5000    0.0000    0.0000 H
   5 C    0.8713   -0.3773    1.1612 C
   6 H    0.8713    1.0493    1.6247 H
   7 C    2.0888    0.4606    0.9048 C
   8 O    2.2769    1.0682   -0.2000 O
   9 C    0.2479   -1.7311    1.3298 C
  10 H   -1.0237   -1.6400    2.1202 H
  11 H    1.5060   -2.3874    1.8161 H
  12 H    0.3246   -2.7086    0.1946 H
  13 N    2.6848    1.8341    0.9958 N
  14 C    3.6754    2.2915   -0.0336 C
  15 H    2.2042    2.6443    2.1630 H
  16 H    3.5276    0.9854   -0.7562 H
  17 C    2.7822    3.4457   -0.3802 C
  18 O    2.9677    4.1742   -1.6782 O
  19 C    5.1070    2.5371    0.3406 C
  20 H    5.6507    1.5935    1.3720 H
  21 H    4.8758    3.9693    0.7218 H
  22 H    5.9018    3.0992   -0.8007 H
  23 N    0.4752    4.9419   -0.5116 N
  24 C    0.4610    4.3881   -1.9055 C
  25 H    0.9342    6.3165   -0.1248 H
  26 H    0.5405    3.1456   -2.7422 H
  27 C   -0.1891    3.1341   -1.4007 C
  28 O    0.3132    1.7948   -1.8522 O
  29 C   -0.8370    4.1358   -2.6137 C
  30 H   -0.3185    4.5748   -3.9511 H
  31 H   -1.3647    2.7395   -2.4661 H
  32 H   -1.5568    5.2570   -1.9246 H
  33 O   -1.3445    3.0752   -0.4458 O
  34 H   -1.5433    1.6994    0.1177 H

@<TRIPOS>BOND
   1   1   2   1
   1   1   3   1
   1   1   4   1
   1   1   5   1
   1   2   8   4
   1   2  28   4
   1   5   6   1
   1   5   7   1
   1   5   9   1
   1   7   8   2
   1   7  13   1
   1   9  10   1
   1   9  11   1
   1   9  12   1
   1  13  14   1
   1  13  15   1
   1  14  16   1
   1  14  17   1
   1  14  19   1
   1  17  18   2
   1  17  23   1
   1  19  20   1
   1  19  21   1
   1  19  22   1
   1  23  24   1
   1  23  25   1
   1  24  26   1
   1  24  27   1
   1  24  29   1
   1  27  28   2
   1  27  33   1
   1  29  30   1
   1  29  31   1
   1  29  32   1
   1  33  34   1
