@<TRIPOS>MOLECULE
*****
 80 86 0 0 0
SMALL
GASTEIGER

@<TRIPOS>ATOM
   1 O    0.0000    0.0000    0.0000 O
   2 C   -1.2990    0.6068   -0.4408 C
   3 H   -2.5581   -0.2084   -0.4507 H
   4 H   -1.8735    1.4810    0.6342 H
   5 C   -1.5128    0.9545   -1.8842 C
   6 C   -1.7695   -0.1203   -2.8986 C
   7 H   -3.1672   -0.6114   -3.1337 H
   8 C   -0.7255   -0.7882   -3.7436 C
   9 H    0.4299   -1.4537   -3.0563 H
  10 C   -1.2380   -0.2301   -5.0381 C
  11 H   -1.7622   -1.1535   -6.0977 H
  12 C   -0.1466    2.9756   -2.7139 C
  13 H    0.4384    4.2627   -2.2127 H
  14 C   -1.4653    2.3964   -2.2949 C
  15 H   -2.9645    2.4460   -2.2940 H
  16 C   -0.0000   -0.0000    1.5000 C
  17 O   -1.1576    0.3881    2.3713 O
  18 N    1.2943   -0.4339    2.1217 N
  19 H    1.2886   -1.1748    3.4260 H
  20 C    2.5168   -0.0632    1.3355 C
  21 H    3.5166    0.6432    2.2023 H
  22 C    2.3946    0.2975   -0.1153 C
  23 H    2.5509    1.7760   -0.3142 H
  24 H    2.9666   -0.6343   -1.1422 H
  25 H    1.4799   -0.4869   -1.0087 H
  26 C    2.7126   -1.5025    0.9613 C
  27 O    4.0489   -2.0676    1.3419 O
  28 N    1.6160   -2.2521    0.2643 N
  29 H    1.1629   -3.2724    4.1016 H
  30 C    0.2830    1.1472    5.8951 C
  31 H    1.3169    1.7029    6.8290 H
  32 C   -0.2854    2.5352    5.8734 C
  33 H   -1.7835    2.5928    5.8243 H
  34 H   -0.1038    3.3713    4.6414 H
  35 H   -0.1846    3.3767    7.1110 H
  36 C   -0.6093   -0.0243    6.1805 C
  37 O   -0.9963   -0.1745    7.6219 O
  38 N   -1.0392   -0.9292    5.0641 N
  39 H   -1.0984   -0.2705    3.7177 H
  40 C   -1.3672   -2.3653    5.3467 C
  41 H   -1.1005   -2.6244    6.7999 H
  42 C   -2.8427   -2.5308    5.1330 C
  43 H   -3.2161   -2.2193    3.7140 H
  44 H   -3.7815   -2.1297    6.2320 H
  45 H   -3.5978   -3.5797    5.8943 H
  46 C   -0.3606   -3.4134    4.9751 C
  47 O    0.2336   -3.2477    3.6078 O
  48 N    0.0659   -4.5591    5.8444 N
  49 H    0.8827   -5.6024    5.1414 H
  50 C   -0.2589   -4.7160    7.3004 C
  51 H    0.1919   -5.9574    8.0116 H
  52 C   -0.1555   -3.5180    8.1971 C
  53 H    0.1160   -3.6828    9.6631 H
  54 H    1.0812   -3.0803    7.4697 H
  55 H   -1.3742   -2.6654    8.3916 H
  56 C   -4.3505   -0.9287    9.6045 C
  57 O   -5.1320    0.3514    9.6320 O
  58 N   -3.6568   -1.3570    8.3454 N
  59 H   -2.3265   -0.7657    7.9837 H
  60 C   -3.7531   -2.7807    7.8831 C
  61 H   -5.0648   -2.4773    7.2218 H
  62 C   -3.7532   -3.6629    9.0963 C
  63 H   -2.4064   -3.1287    9.4848 H
  64 H   -4.4305   -3.2230    10.3603 H
  65 H   -3.8495   -5.0867    8.6340 H
  66 C   -2.2679   -1.7733    8.0064 C
  67 O   -3.4551   -0.2163    6.4309 O
  68 N   -1.2445   -2.0693    6.9504 N
  69 H   -0.8388   -3.0394    2.5799 H
  70 C    0.1779   -1.6330    7.1412 C
  71 H    1.5678   -1.9125    7.6309 H
  72 C    0.6805   -1.2929    8.5130 C
  73 H   -0.6314   -1.5504    9.1931 H
  74 H    1.9352   -1.9568    8.9978 H
  75 H    1.2349    0.0436    8.9082 H
  76 C    0.2800   -1.3255    5.6766 C
  77 O    1.2829   -1.9157    4.7302 O
  78 N   -0.7327   -0.3383    5.1765 N
  79 H   -2.0939   -0.2773    5.8037 H
  80 H   -0.5174    0.6416    4.0615 H

@<TRIPOS>BOND
   1   1   2   1
   1   1  16   1
   1   2   3   1
   1   2   4   1
   1   2   5   1
   1   5   6   2
   1   5  14   1
   1   6   7   1
   1   6   8   1
   1   8   9   1
   1   8  10   2
   1  10  11   1
   1  10  12   1
   1  12  13   1
   1  12  14   2
   1  14  15   1
   1  16  17   2
   1  16  18   1
   1  17  39   4
   1  18  19   1
   1  18  20   1
   1  19  77   4
   1  20  21   1
   1  20  22   1
   1  20  26   1
   1  22  23   1
   1  22  24   1
   1  22  25   1
   1  26  27   2
   1  26  28   1
   1  28  29   1
   1  28  30   1
   1  29  77   4
   1  30  31   1
   1  30  32   1
   1  30  36   1
   1  32  33   1
   1  32  34   1
   1  32  35   1
   1  36  37   2
   1  36  38   1
   1  37  59   4
   1  38  39   1
   1  38  40   1
   1  40  41   1
   1  40  42   1
   1  40  46   1
   1  42  43   1
   1  42  44   1
   1  42  45   1
   1  46  47   2
   1  46  48   1
   1  47  69   4
   1  48  49   1
   1  48  50   1
   1  50  51   1
   1  50  52   1
   1  50  56   1
   1  52  53   1
   1  52  54   1
   1  52  55   1
   1  56  57   2
   1  56  58   1
   1  58  59   1
   1  58  60   1
   1  60  61   1
   1  60  62   1
   1  60  66   1
   1  62  63   1
   1  62  64   1
   1  62  65   1
   1  66  67   2
   1  66  68   1
   1  67  79   4
   1  68  69   1
   1  68  70   1
   1  70  71   1
   1  70  72   1
   1  70  76   1
   1  72  73   1
   1  72  74   1
   1  72  75   1
   1  76  77   2
   1  76  78   1
   1  78  79   1
   1  78  80   1
