@<TRIPOS>MOLECULE
*****
 80 86 0 0 0
SMALL
GASTEIGER

@<TRIPOS>ATOM
   1 O    0.0000    0.0000    0.0000 O
   2 C    0.7500   -1.0509   -0.7636 C
   3 H   -0.0000   -1.4524   -1.9990 H
   4 H    2.2500   -1.0509   -0.7636 H
   5 C    0.7500   -2.4775   -0.3000 C
   6 C   -0.0136   -3.5156   -1.0678 C
   7 H   -0.7349   -3.0943   -2.3136 H
   8 C   -0.0184   -4.9242   -0.5521 C
   9 H    0.5145   -5.9414   -1.5172 H
  10 C   -0.4995   -5.3548    0.8018 C
  11 H   -1.1594   -6.6945    0.9418 H
  12 C    1.8527   -2.0786    2.0271 C
  13 H    3.2798   -2.2972    2.4339 H
  14 C    1.4677   -3.0010    0.9087 C
  15 H    1.7934   -4.4635    0.9787 H
  16 C    0.7500    1.2990    0.0000 C
  17 O    0.7226    0.4488   -1.2355 O
  18 N   -0.0000    2.5981    0.0000 N
  19 H   -1.4313    2.5954    0.4488 H
  20 C    0.7180    3.8362   -0.4488 C
  21 H    1.4864    3.8488   -1.7370 H
  22 C   -0.0634    5.0333   -0.9033 C
  23 H    0.1532    5.5925   -2.2782 H
  24 H   -1.4908    5.2039   -0.4749 H
  25 H    0.3910    5.7903    0.3093 H
  26 C    1.9957    4.0205    0.3151 C
  27 O    3.2979    3.5776   -0.2833 O
  28 N    1.9409    5.2597    1.1585 N
  29 H   -2.8231    1.0977    1.0144 H
  30 C   -0.5474    3.9564   -2.7101 C
  31 H   -0.8609    3.0803   -1.5336 H
  32 C   -1.5820    4.9370   -3.1769 C
  33 H   -1.0442    6.3370   -3.1474 H
  34 H   -2.6599    4.4210   -2.2704 H
  35 H   -2.5027    4.5399   -4.2926 H
  36 C    0.1942    3.3667   -3.8730 C
  37 O    0.5307    4.4968   -4.8001 O
  38 N    1.0281    2.1319   -3.7000 N
  39 H    0.8754    1.2904   -2.4677 H
  40 C    2.0479    1.6253   -4.6764 C
  41 H    3.4976    1.5845   -4.2932 H
  42 C    1.2644    0.3562   -4.8363 C
  43 H    1.3253    0.5065   -6.3275 H
  44 H   -0.0470    0.4422   -4.1132 H
  45 H    1.2190   -0.6139   -3.6932 H
  46 C    1.3959    2.9581   -4.8967 C
  47 O   -0.0137    3.0287   -5.4046 O
  48 N    2.2644    4.1367   -4.5700 N
  49 H    3.7373    3.8694   -4.6665 H
  50 C    1.7735    5.4972   -4.1726 C
  51 H    0.6953    6.2548   -4.8892 H
  52 C    2.2569    6.2590   -2.9743 C
  53 H    2.0653    5.3918   -1.7655 H
  54 H    3.7338    6.4579   -3.1446 H
  55 H    2.0639    7.4820   -2.1274 H
  56 C   -1.6504    6.1454   -7.6768 C
  57 O   -2.1963    6.7985   -8.9119 O
  58 N   -1.8236    5.2095   -6.5175 N
  59 H   -0.6465    4.8532   -5.6588 H
  60 C   -3.1121    4.5609   -6.1063 C
  61 H   -4.3364    4.7180   -6.9586 H
  62 C   -3.2671    3.0698   -6.1585 C
  63 H   -4.7630    3.1192   -6.2579 H
  64 H   -2.4917    2.4022   -7.2554 H
  65 H   -2.7449    2.1598   -5.0865 H
  66 C   -3.8865    3.1310   -4.0805 C
  67 O   -5.7838    5.9353   -1.3207 O
  68 N   -2.9535    2.7608   -2.9657 N
  69 H   -0.9339    3.0251   -4.2201 H
  70 C   -3.5017    2.4108   -1.6141 C
  71 H   -3.6584    0.9261   -1.4683 H
  72 C   -4.8728    1.8139   -1.7308 C
  73 H   -5.6059    1.8975   -0.4248 H
  74 H   -5.1097    0.6531   -2.6508 H
  75 H   -5.6406    2.0107   -3.0043 H
  76 C   -3.1473    3.2483   -0.4211 C
  77 O   -2.8626    2.5927    0.8976 O
  78 N   -3.1135    4.7243   -0.6857 N
  79 H   -4.4487    5.3298   -1.0032 H
  80 H   -1.8871    5.5875   -0.6535 H

@<TRIPOS>BOND
   1   1   2   1
   1   1  16   1
   1   2   3   1
   1   2   4   1
   1   2   5   1
   1   5   6   2
   1   5  14   1
   1   6   7   1
   1   6   8   1
   1   8   9   1
   1   8  10   2
   1  10  11   1
   1  10  12   1
   1  12  13   1
   1  12  14   2
   1  14  15   1
   1  16  17   2
   1  16  18   1
   1  17  39   4
   1  18  19   1
   1  18  20   1
   1  19  77   4
   1  20  21   1
   1  20  22   1
   1  20  26   1
   1  22  23   1
   1  22  24   1
   1  22  25   1
   1  26  27   2
   1  26  28   1
   1  28  29   1
   1  28  30   1
   1  29  77   4
   1  30  31   1
   1  30  32   1
   1  30  36   1
   1  32  33   1
   1  32  34   1
   1  32  35   1
   1  36  37   2
   1  36  38   1
   1  37  59   4
   1  38  39   1
   1  38  40   1
   1  40  41   1
   1  40  42   1
   1  40  46   1
   1  42  43   1
   1  42  44   1
   1  42  45   1
   1  46  47   2
   1  46  48   1
   1  47  69   4
   1  48  49   1
   1  48  50   1
   1  50  51   1
   1  50  52   1
   1  50  56   1
   1  52  53   1
   1  52  54   1
   1  52  55   1
   1  56  57   2
   1  56  58   1
   1  58  59   1
   1  58  60   1
   1  60  61   1
   1  60  62   1
   1  60  66   1
   1  62  63   1
   1  62  64   1
   1  62  65   1
   1  66  67   2
   1  66  68   1
   1  67  79   4
   1  68  69   1
   1  68  70   1
   1  70  71   1
   1  70  72   1
   1  70  76   1
   1  72  73   1
   1  72  74   1
   1  72  75   1
   1  76  77   2
   1  76  78   1
   1  78  79   1
   1  78  80   1
