@<TRIPOS>MOLECULE
*****
 80 86 0 0 0
SMALL
GASTEIGER

@<TRIPOS>ATOM
   1 O    0.0000    0.0000    0.0000 O
   2 C    0.7500   -1.0509   -0.7636 C
   3 H    0.7500   -0.1693   -1.9771 H
   4 H    2.0351   -1.3994   -0.0729 H
   5 C    1.1698   -2.4828   -0.9168 C
   6 C    2.6409   -2.7210   -0.7467 C
   7 H    3.3724   -2.1024    0.4075 H
   8 C    3.2551   -3.5950   -1.7999 C
   9 H    4.7453   -3.4718   -1.9186 H
  10 C    2.5066   -4.5368   -2.6958 C
  11 H    3.4339   -5.1961   -3.6733 H
  12 C    0.7907   -4.8691   -1.8719 C
  13 H    0.1787   -3.6995   -2.5844 H
  14 C    0.2534   -3.6324   -1.2147 C
  15 H   -1.2146   -3.6780   -0.9101 H
  16 C    0.7500    0.4014    1.2355 C
  17 O    2.0351    1.1659    1.1175 O
  18 N    0.3302    0.1047    2.6446 N
  19 H    0.1543   -1.3164    3.0913 H
  20 C    0.7506    1.5150    2.9348 C
  21 H    2.1904    1.7295    2.5729 H
  22 C   -0.2346    2.6365    2.7882 C
  23 H   -0.6555    3.9851    3.2924 H
  24 H   -0.8041    2.9631    1.4395 H
  25 H   -1.2349    1.8058    2.0404 H
  26 C    1.0389    1.9520    4.3405 C
  27 O    0.0453    2.7962    5.0822 O
  28 N    2.0709    0.8635    4.3348 N
  29 H    1.0022   -3.6294    2.9006 H
  30 C    3.9110   -0.4836    4.8078 C
  31 H    4.4391    0.1220    6.0744 H
  32 C    3.7164   -1.1917    6.1158 C
  33 H    2.5776   -0.2553    5.8396 H
  34 H    2.3333   -1.5339    6.5849 H
  35 H    4.8551   -2.1282    6.3920 H
  36 C    4.1706   -1.1473    3.4879 C
  37 O    4.2604   -2.6432    3.5512 O
  38 N    4.3373   -0.4407    2.1753 N
  39 H    3.1862    0.3626    1.6464 H
  40 C    5.0457   -0.2904    0.8617 C
  41 H    6.4907    0.0545    1.0694 H
  42 C    5.4877    1.1275    0.6512 C
  43 H    5.3543    1.3874    2.1225 H
  44 H    6.8632    1.1004    0.0535 H
  45 H    4.8896    1.1097   -0.7243 H
  46 C    5.3054   -1.7599    0.7092 C
  47 O    4.4258   -2.7655    1.3911 O
  48 N    6.4493   -2.2503   -0.1280 N
  49 H    7.0363   -1.5330   -1.3074 H
  50 C    7.1039   -3.5618    0.1909 C
  51 H    6.8906   -4.7560   -0.6914 H
  52 C    7.9835   -3.7027    1.3977 C
  53 H    7.4733   -3.0052    2.6237 H
  54 H    8.7259   -5.0061    1.4078 H
  55 H    9.1189   -3.1922    2.2344 H
  56 C    4.4526   -4.5836    0.2078 C
  57 O    4.8760   -5.6091   -0.8018 O
  58 N    3.3678   -3.8792    0.9674 N
  59 H    3.8141   -3.2612    2.2593 H
  60 C    1.9729   -3.8373    0.4176 C
  61 H    1.9858   -3.5376   -1.0521 H
  62 C    0.9133   -4.7305    0.9916 C
  63 H    1.8531   -5.1423    2.0857 H
  64 H    0.0742   -3.5292    1.3121 H
  65 H    0.7694   -5.4132   -0.3363 H
  66 C   -0.7151   -0.9552    1.9071 C
  67 O   -2.8342   -6.9536    3.4507 O
  68 N   -1.1088   -2.2862    2.4759 N
  69 H    3.0365   -2.3523    1.7774 H
  70 C   -2.4435   -2.4529    3.1398 C
  71 H   -3.5133   -1.9127    4.0418 H
  72 C   -3.6152   -2.3865    2.2057 C
  73 H   -4.1980   -1.0416    1.8869 H
  74 H   -2.9662   -3.2109    1.1338 H
  75 H   -4.9863   -2.9053    2.5234 H
  76 C   -1.3933   -3.2651    3.8380 C
  77 O   -0.0216   -2.7375    3.5380 O
  78 N   -1.6738   -4.4749    4.6792 N
  79 H   -2.2540   -5.7142    4.0650 H
  80 H   -1.3635   -4.4229    6.1459 H

@<TRIPOS>BOND
   1   1   2   1
   1   1  16   1
   1   2   3   1
   1   2   4   1
   1   2   5   1
   1   5   6   2
   1   5  14   1
   1   6   7   1
   1   6   8   1
   1   8   9   1
   1   8  10   2
   1  10  11   1
   1  10  12   1
   1  12  13   1
   1  12  14   2
   1  14  15   1
   1  16  17   2
   1  16  18   1
   1  17  39   4
   1  18  19   1
   1  18  20   1
   1  19  77   4
   1  20  21   1
   1  20  22   1
   1  20  26   1
   1  22  23   1
   1  22  24   1
   1  22  25   1
   1  26  27   2
   1  26  28   1
   1  28  29   1
   1  28  30   1
   1  29  77   4
   1  30  31   1
   1  30  32   1
   1  30  36   1
   1  32  33   1
   1  32  34   1
   1  32  35   1
   1  36  37   2
   1  36  38   1
   1  37  59   4
   1  38  39   1
   1  38  40   1
   1  40  41   1
   1  40  42   1
   1  40  46   1
   1  42  43   1
   1  42  44   1
   1  42  45   1
   1  46  47   2
   1  46  48   1
   1  47  69   4
   1  48  49   1
   1  48  50   1
   1  50  51   1
   1  50  52   1
   1  50  56   1
   1  52  53   1
   1  52  54   1
   1  52  55   1
   1  56  57   2
   1  56  58   1
   1  58  59   1
   1  58  60   1
   1  60  61   1
   1  60  62   1
   1  60  66   1
   1  62  63   1
   1  62  64   1
   1  62  65   1
   1  66  67   2
   1  66  68   1
   1  67  79   4
   1  68  69   1
   1  68  70   1
   1  70  71   1
   1  70  72   1
   1  70  76   1
   1  72  73   1
   1  72  74   1
   1  72  75   1
   1  76  77   2
   1  76  78   1
   1  78  79   1
   1  78  80   1
