@<TRIPOS>MOLECULE
*****
 80 86 0 0 0
SMALL
GASTEIGER

@<TRIPOS>ATOM
   1 O    0.0000    0.0000    0.0000 O
   2 C    0.7500    1.2990    0.0000 C
   3 H    0.1142    2.5478    0.5351 H
   4 H    0.7500    1.2990   -1.5000 H
   5 C    1.3858    0.0503   -0.5351 C
   6 C    0.5441   -1.1595   -0.8144 C
   7 H   -0.0330   -2.0776    0.2220 H
   8 C    0.2170   -1.5353   -2.2292 C
   9 H   -0.5701   -2.7770   -2.5270 H
  10 C    0.6711   -0.6761   -3.3719 C
  11 H   -0.0144   -0.7524   -4.7040 H
  12 C    2.6528    0.2325   -2.2268 C
  13 H    3.7433   -0.1858   -3.1680 H
  14 C    2.8679    0.1479   -0.7447 C
  15 H    3.7459    0.3519    0.4543 H
  16 C    0.7500   -1.0509    0.7636 C
  17 O    0.1645   -1.6571    2.0044 O
  18 N    1.9877   -0.6834    1.5271 N
  19 H    1.8939   -0.3275    2.9813 H
  20 C    3.2496   -0.7119    0.7167 C
  21 H    3.8176   -0.4851   -0.6530 H
  22 C    2.9969   -2.1501    0.3738 C
  23 H    2.0104   -2.4723   -0.7092 H
  24 H    4.2622   -2.9512    0.4604 H
  25 H    1.8319   -2.2973    1.3070 H
  26 C    4.0433   -0.3608    1.9402 C
  27 O    4.8384    0.8921    1.7209 O
  28 N    4.5842   -1.4479    2.8207 N
  29 H    0.4869   -0.0838    5.1518 H
  30 C    3.5053    0.1262    3.5960 C
  31 H    4.8810    0.7038    3.4412 H
  32 C    2.3512    1.0197    3.9418 C
  33 H    2.2600    1.6599    5.2952 H
  34 H    0.9767    0.4213    3.9947 H
  35 H    2.8086    2.0093    2.9115 H
  36 C    3.5688   -1.2658    4.1513 C
  37 O    4.7715   -1.7272    4.9197 O
  38 N    2.4078   -2.1880    3.9242 N
  39 H    1.2861   -1.9225    2.9643 H
  40 C    1.7785   -3.3239    3.1734 C
  41 H    1.8853   -3.3484    1.6774 H
  42 C    0.4859   -3.7370    3.8124 C
  43 H   -0.3335   -2.6008    4.3488 H
  44 H    1.1801   -3.8613    5.1363 H
  45 H    0.6719   -5.2067    3.5769 H
  46 C    2.3365   -4.7149    3.1116 C
  47 O    1.5660   -5.8021    2.4229 O
  48 N    3.6705   -4.8799    3.7773 N
  49 H    4.2356   -3.9757    4.8323 H
  50 C    4.5608   -6.0263    3.3990 C
  51 H    4.8016   -5.5402    2.0005 H
  52 C    4.1592   -7.1954    4.2487 C
  53 H    5.2957   -8.1626    4.3998 H
  54 H    3.2500   -6.9601    5.4183 H
  55 H    3.5290   -7.9445    3.1122 H
  56 C    4.0166   -5.5657    5.4507 C
  57 O    4.7993   -6.6677    4.8003 O
  58 N    4.0719   -4.3120    6.2723 N
  59 H    4.4217   -3.0196    5.5960 H
  60 C    3.7826   -4.3500    7.7436 C
  61 H    4.7539   -3.4948    8.5022 H
  62 C    3.2362   -5.5993    8.3686 C
  63 H    4.2630   -6.6928    8.3649 H
  64 H    2.2449   -5.5051    9.4904 H
  65 H    1.7989   -5.9569    8.1314 H
  66 C    1.4151   -3.0185    6.1652 C
  67 O    1.0731    3.6873    4.5071 O
  68 N    0.5041   -2.5533    5.0681 N
  69 H    0.9015   -5.3175    1.1685 H
  70 C   -0.3411   -1.3295    5.2634 C
  71 H   -0.9815   -0.9369    6.5618 H
  72 C   -1.7374   -1.3207    4.7154 C
  73 H   -2.7585   -0.3567    5.2427 H
  74 H   -2.4382   -2.6064    4.3901 H
  75 H   -1.9929   -0.8288    3.3215 H
  76 C    0.4869   -0.0838    5.1518 C
  77 O    1.8000    0.0283    4.4354 O
  78 N    0.0157    1.1896    5.7892 N
  79 H    0.5444    2.4385    5.1481 H
  80 H   -0.9057    1.2845    6.9690 H

@<TRIPOS>BOND
   1   1   2   1
   1   1  16   1
   1   2   3   1
   1   2   4   1
   1   2   5   1
   1   5   6   2
   1   5  14   1
   1   6   7   1
   1   6   8   1
   1   8   9   1
   1   8  10   2
   1  10  11   1
   1  10  12   1
   1  12  13   1
   1  12  14   2
   1  14  15   1
   1  16  17   2
   1  16  18   1
   1  17  39   4
   1  18  19   1
   1  18  20   1
   1  19  77   4
   1  20  21   1
   1  20  22   1
   1  20  26   1
   1  22  23   1
   1  22  24   1
   1  22  25   1
   1  26  27   2
   1  26  28   1
   1  28  29   1
   1  28  30   1
   1  29  77   4
   1  30  31   1
   1  30  32   1
   1  30  36   1
   1  32  33   1
   1  32  34   1
   1  32  35   1
   1  36  37   2
   1  36  38   1
   1  37  59   4
   1  38  39   1
   1  38  40   1
   1  40  41   1
   1  40  42   1
   1  40  46   1
   1  42  43   1
   1  42  44   1
   1  42  45   1
   1  46  47   2
   1  46  48   1
   1  47  69   4
   1  48  49   1
   1  48  50   1
   1  50  51   1
   1  50  52   1
   1  50  56   1
   1  52  53   1
   1  52  54   1
   1  52  55   1
   1  56  57   2
   1  56  58   1
   1  58  59   1
   1  58  60   1
   1  60  61   1
   1  60  62   1
   1  60  66   1
   1  62  63   1
   1  62  64   1
   1  62  65   1
   1  66  67   2
   1  66  68   1
   1  67  79   4
   1  68  69   1
   1  68  70   1
   1  70  71   1
   1  70  72   1
   1  70  76   1
   1  72  73   1
   1  72  74   1
   1  72  75   1
   1  76  77   2
   1  76  78   1
   1  78  79   1
   1  78  80   1
