@<TRIPOS>MOLECULE
*****
 80 86 0 0 0
SMALL
GASTEIGER

@<TRIPOS>ATOM
   1 O    0.0000    0.0000    0.0000 O
   2 C   -1.2990   -0.7500    0.0000 C
   3 H   -0.7987   -1.8344    0.9076 H
   4 H   -2.2441   -0.1835    1.0178 H
   5 C   -1.8516   -1.2382   -1.3063 C
   6 C   -3.2452   -1.7471   -1.5271 C
   7 H   -4.0849   -1.5583   -0.2985 H
   8 C   -3.7469   -2.3184   -2.8202 C
   9 H   -5.0561   -3.0493   -2.8594 H
  10 C   -3.0434   -2.2317   -4.1421 C
  11 H   -3.3491   -3.2685   -5.1822 H
  12 C   -0.6067   -2.4244   -3.2539 C
  13 H    0.7519   -3.0314   -3.4427 H
  14 C   -0.8814   -1.1887   -2.4491 C
  15 H   -0.2581    0.1564   -2.6777 H
  16 C    0.8713   -0.3773    1.1612 C
  17 O    1.5049    0.8375    1.7718 O
  18 N    1.0432   -1.7756    1.6762 N
  19 H    2.4666   -2.2447    1.7382 H
  20 C   -0.1576   -2.5799    2.0777 C
  21 H   -1.3255   -1.9234    2.7521 H
  22 C   -1.4086   -3.2551    1.5993 C
  23 H   -2.6815   -3.0178    2.3565 H
  24 H   -2.1121   -2.9303    0.3149 H
  25 H   -0.7973   -4.6237    1.5433 H
  26 C    0.6282   -3.6009    2.8460 C
  27 O   -0.0843   -4.6899    3.5918 O
  28 N    1.7957   -3.1367    2.0265 N
  29 H    4.1931   -4.1797    1.8973 H
  30 C    5.3597    1.4205   -1.6812 C
  31 H    4.4865    2.5266   -2.1951 H
  32 C    6.6332    2.0128   -2.2079 C
  33 H    6.4373    1.5050   -3.6057 H
  34 H    6.7426    3.4623   -1.8375 H
  35 H    7.9413    1.7399   -1.5266 H
  36 C    4.6356    0.5998   -0.6555 C
  37 O    4.3393   -0.8667   -0.7639 O
  38 N    4.1965    1.3660    0.5569 N
  39 H    2.8507    1.1018    1.1644 H
  40 C    4.5200    2.0233    1.8659 C
  41 H    3.3245    2.7466    2.4114 H
  42 C    5.8791    2.6294    2.0537 C
  43 H    6.8249    2.4010    0.9121 H
  44 H    6.0166    4.1225    2.0120 H
  45 H    6.7998    2.0357    3.0784 H
  46 C    4.8101    1.2852    3.1391 C
  47 O    6.2633    0.9964    3.3731 O
  48 N    3.7863    0.8410    4.1414 N
  49 H    2.6856   -0.0899    3.7271 H
  50 C    3.9808    1.4019    5.5190 C
  51 H    3.9639    0.4645    6.6899 H
  52 C    4.9928    2.4907    5.7197 C
  53 H    5.2559    3.4489    4.5960 H
  54 H    4.7661    3.7199    6.5490 H
  55 H    6.1507    2.0009    6.5378 H
  56 C    5.6042   -3.3059    2.0998 C
  57 O    6.0056   -4.7381    2.2943 O
  58 N    6.1632   -2.5197    0.9511 N
  59 H    5.2513   -1.6932    0.0936 H
  60 C    7.6077   -2.4704    0.5500 C
  61 H    8.6644   -3.0759    1.4256 H
  62 C    8.3455   -1.1644    0.5628 C
  63 H    9.0889   -0.6955   -0.6527 H
  64 H    9.6416   -1.2893    1.3074 H
  65 H    7.5835    0.1272    0.5950 H
  66 C    7.5592   -0.8814    0.4188 C
  67 O    5.9671    0.0857    5.7239 O
  68 N    6.8273   -0.6604    1.7093 N
  69 H    6.4712   -0.4646    3.1046 H
  70 C    6.2441   -1.8270    2.4500 C
  71 H    6.8641   -3.1809    2.2692 H
  72 C    6.4240   -2.0782    3.9179 C
  73 H    6.6276   -0.9359    4.8686 H
  74 H    7.8108   -2.5692    4.2108 H
  75 H    5.2679   -2.5594    4.7437 H
  76 C    4.7497   -1.7207    2.5246 C
  77 O    3.8900   -2.7138    1.8003 O
  78 N    4.2485   -0.5771    3.3559 N
  79 H    5.1078   -0.2457    4.5399 H
  80 H    2.9826    0.1303    2.9727 H

@<TRIPOS>BOND
   1   1   2   1
   1   1  16   1
   1   2   3   1
   1   2   4   1
   1   2   5   1
   1   5   6   2
   1   5  14   1
   1   6   7   1
   1   6   8   1
   1   8   9   1
   1   8  10   2
   1  10  11   1
   1  10  12   1
   1  12  13   1
   1  12  14   2
   1  14  15   1
   1  16  17   2
   1  16  18   1
   1  17  39   4
   1  18  19   1
   1  18  20   1
   1  19  77   4
   1  20  21   1
   1  20  22   1
   1  20  26   1
   1  22  23   1
   1  22  24   1
   1  22  25   1
   1  26  27   2
   1  26  28   1
   1  28  29   1
   1  28  30   1
   1  29  77   4
   1  30  31   1
   1  30  32   1
   1  30  36   1
   1  32  33   1
   1  32  34   1
   1  32  35   1
   1  36  37   2
   1  36  38   1
   1  37  59   4
   1  38  39   1
   1  38  40   1
   1  40  41   1
   1  40  42   1
   1  40  46   1
   1  42  43   1
   1  42  44   1
   1  42  45   1
   1  46  47   2
   1  46  48   1
   1  47  69   4
   1  48  49   1
   1  48  50   1
   1  50  51   1
   1  50  52   1
   1  50  56   1
   1  52  53   1
   1  52  54   1
   1  52  55   1
   1  56  57   2
   1  56  58   1
   1  58  59   1
   1  58  60   1
   1  60  61   1
   1  60  62   1
   1  60  66   1
   1  62  63   1
   1  62  64   1
   1  62  65   1
   1  66  67   2
   1  66  68   1
   1  67  79   4
   1  68  69   1
   1  68  70   1
   1  70  71   1
   1  70  72   1
   1  70  76   1
   1  72  73   1
   1  72  74   1
   1  72  75   1
   1  76  77   2
   1  76  78   1
   1  78  79   1
   1  78  80   1
