@<TRIPOS>MOLECULE
*****
 80 86 0 0 0
SMALL
GASTEIGER

@<TRIPOS>ATOM
   1 O    0.0000    0.0000    0.0000 O
   2 C    0.7500    0.4014    1.2355 C
   3 H    2.0351    1.0893    0.8815 H
   4 H    1.5136   -0.6165    2.0297 H
   5 C    0.3012    1.4633    2.1952 C
   6 C   -0.4354    1.2221    3.4794 C
   7 H   -1.7328    0.4693    3.4699 H
   8 C    0.2357    1.7864    4.6965 C
   9 H   -0.5867    2.2152    5.8754 H
  10 C    1.4661    2.5574    4.3201 C
  11 H    2.7222    2.3454    5.1121 H
  12 C    0.3794    3.9543    2.9562 C
  13 H   -0.3532    5.1604    3.4648 H
  14 C    0.5831    2.9070    1.9018 C
  15 H    1.0724    3.2846    0.5351 H
  16 C    0.7500    0.4014   -1.2355 C
  17 O    0.7774   -0.5108   -2.4259 O
  18 N    1.5124    1.6807   -1.4149 N
  19 H    0.7749    2.9737   -1.5999 H
  20 C    3.0040    1.5243   -1.3891 C
  21 H    3.0048    1.2877   -2.8703 H
  22 C    3.6389    0.3754   -0.6633 C
  23 H    4.9478    0.4491    0.0655 H
  24 H    4.0927   -0.6811   -1.6267 H
  25 H    3.0691   -0.0482    0.6580 H
  26 C    3.1409    2.9182   -0.8522 C
  27 O    2.3877    3.3248    0.3797 O
  28 N    3.3455    3.9028   -1.9653 N
  29 H   -0.6438    4.6808   -0.5142 H
  30 C   -0.6019    2.6486   -5.4598 C
  31 H   -1.2209    3.9080   -5.9896 H
  32 C    0.6737    2.1316   -6.0561 C
  33 H    1.0632    2.9322   -7.2633 H
  34 H    1.9958    2.4458   -5.4211 H
  35 H    0.2224    0.7016   -6.0937 H
  36 C   -1.4755    1.5183   -5.0024 C
  37 O   -2.9330    1.6252   -4.6646 O
  38 N   -0.7754    0.1962   -4.8935 N
  39 H    0.0010   -0.1573   -3.6597 H
  40 C   -0.8390   -0.7963   -6.0164 C
  41 H   -1.2286   -0.1268   -7.3009 H
  42 C    0.3516   -1.4987   -6.5987 C
  43 H    1.1122   -2.5090   -5.7920 H
  44 H    0.1657   -2.5104   -7.6905 H
  45 H    1.5527   -0.6001   -6.6056 H
  46 C   -1.8376   -1.6062   -5.2439 C
  47 O   -2.4008   -1.0754   -3.9590 O
  48 N   -2.7047   -2.4093   -6.1677 N
  49 H   -3.0751   -1.8788   -7.5210 H
  50 C   -3.1945   -3.7524   -5.7138 C
  51 H   -2.9301   -5.0416   -6.4336 H
  52 C   -2.4676   -3.7128   -4.4023 C
  53 H   -1.9891   -2.3880   -3.8867 H
  54 H   -3.0310   -4.4843   -3.2459 H
  55 H   -1.2598   -4.4605   -4.8844 H
  56 C   -5.9728    2.0459   -7.1810 C
  57 O   -7.0309    3.0963   -7.3462 O
  58 N   -4.5313    2.4448   -7.0674 N
  59 H   -3.7322    2.0350   -5.8660 H
  60 C   -3.7676    3.2491   -8.0773 C
  61 H   -4.5038    4.0567   -9.1049 H
  62 C   -2.9926    2.5693   -9.1668 C
  63 H   -1.5040    2.7164   -9.0556 H
  64 H   -2.9519    1.0701   -9.1973 H
  65 H   -3.0541    3.1313   -10.5562 H
  66 C   -2.5784    5.0340   -5.7319 C
  67 O   -0.4622    6.6219   -6.6232 O
  68 N   -2.4530    4.1072   -4.5591 N
  69 H   -3.5499   -0.1476   -4.2212 H
  70 C   -2.0809    4.6496   -3.2110 C
  71 H   -1.9828    5.9737   -3.9088 H
  72 C   -2.1971    3.8540   -1.9447 C
  73 H   -3.4245    4.2463   -1.1769 H
  74 H   -0.9477    3.5159   -1.1865 H
  75 H   -2.0012    2.5260   -2.6141 H
  76 C   -0.5854    4.5919   -3.1101 C
  77 O    0.0374    4.2667   -1.7848 O
  78 N    0.2717    4.8547   -4.3127 N
  79 H   -0.0952    5.7383   -5.4679 H
  80 H    1.6204    4.2085   -4.4281 H

@<TRIPOS>BOND
   1   1   2   1
   1   1  16   1
   1   2   3   1
   1   2   4   1
   1   2   5   1
   1   5   6   2
   1   5  14   1
   1   6   7   1
   1   6   8   1
   1   8   9   1
   1   8  10   2
   1  10  11   1
   1  10  12   1
   1  12  13   1
   1  12  14   2
   1  14  15   1
   1  16  17   2
   1  16  18   1
   1  17  39   4
   1  18  19   1
   1  18  20   1
   1  19  77   4
   1  20  21   1
   1  20  22   1
   1  20  26   1
   1  22  23   1
   1  22  24   1
   1  22  25   1
   1  26  27   2
   1  26  28   1
   1  28  29   1
   1  28  30   1
   1  29  77   4
   1  30  31   1
   1  30  32   1
   1  30  36   1
   1  32  33   1
   1  32  34   1
   1  32  35   1
   1  36  37   2
   1  36  38   1
   1  37  59   4
   1  38  39   1
   1  38  40   1
   1  40  41   1
   1  40  42   1
   1  40  46   1
   1  42  43   1
   1  42  44   1
   1  42  45   1
   1  46  47   2
   1  46  48   1
   1  47  69   4
   1  48  49   1
   1  48  50   1
   1  50  51   1
   1  50  52   1
   1  50  56   1
   1  52  53   1
   1  52  54   1
   1  52  55   1
   1  56  57   2
   1  56  58   1
   1  58  59   1
   1  58  60   1
   1  60  61   1
   1  60  62   1
   1  60  66   1
   1  62  63   1
   1  62  64   1
   1  62  65   1
   1  66  67   2
   1  66  68   1
   1  67  79   4
   1  68  69   1
   1  68  70   1
   1  70  71   1
   1  70  72   1
   1  70  76   1
   1  72  73   1
   1  72  74   1
   1  72  75   1
   1  76  77   2
   1  76  78   1
   1  78  79   1
   1  78  80   1
