@<TRIPOS>MOLECULE
*****
 80 86 0 0 0
SMALL
GASTEIGER

@<TRIPOS>ATOM
   1 O    0.0000    0.0000    0.0000 O
   2 C   -0.7500    1.0509   -0.7636 C
   3 H   -0.4075    1.3461   -2.1938 H
   4 H   -1.8561    1.8258   -0.1107 H
   5 C   -1.9855    1.3556   -1.5578 C
   6 C   -1.9567    2.0441   -2.8901 C
   7 H   -1.1752    3.3105   -3.0784 H
   8 C   -2.7089    1.4787   -4.0582 C
   9 H   -2.5954    2.1247   -5.4072 H
  10 C   -3.6076    0.7316   -3.1179 C
  11 H   -3.0826   -0.4511   -2.3593 H
  12 C   -4.5502    1.0488   -1.8372 C
  13 H   -6.0370    1.2118   -1.9507 H
  14 C   -3.3147    0.9519   -0.9921 C
  15 H   -3.5504    0.4366    0.3968 H
  16 C   -0.7500   -0.4014    1.2355 C
  17 O   -0.0000   -0.8028    2.4709 O
  18 N   -2.2431   -0.4460    1.3725 N
  19 H   -3.0343    0.8284    1.3750 H
  20 C   -2.8038   -1.6756    0.7218 C
  21 H   -4.2792   -1.9451    0.7421 H
  22 C   -1.8743   -2.5288    1.5331 C
  23 H   -1.5943   -3.9414    1.1135 H
  24 H   -0.6707   -1.9158    2.1854 H
  25 H   -1.8495   -2.3995    3.0273 H
  26 C   -2.3719   -1.1625   -0.6200 C
  27 O   -3.3985   -0.8345   -1.6634 O
  28 N   -0.9534   -0.9315   -1.0492 N
  29 H   -4.5909    2.5128    0.1544 H
  30 C    4.2617    2.2769    1.5345 C
  31 H    5.6536    2.5183    1.0303 H
  32 C    4.2688    3.3303    0.4668 C
  33 H    4.0901    4.8022    0.6937 H
  34 H    3.1110    3.4467   -0.4797 H
  35 H    5.6007    2.8347   -0.0134 H
  36 C    2.8698    2.0354    2.0388 C
  37 O    1.4051    2.3581    2.0147 O
  38 N    2.5703    0.7262    2.7069 N
  39 H    1.2851   -0.0383    2.5889 H
  40 C    3.6884    0.1880    3.5496 C
  41 H    4.6533    0.4861    4.6587 H
  42 C    3.1634   -0.9858    4.3218 C
  43 H    2.9570   -0.8937    5.8046 H
  44 H    4.2382   -2.0102    4.5350 H
  45 H    1.7376   -1.4192    4.1503 H
  46 C    3.9617    0.7465    2.1845 C
  47 O    2.8277    0.9918    1.2337 O
  48 N    5.2918    1.1467    2.7508 N
  49 H    5.5300    2.2914    3.6904 H
  50 C    6.3902    0.2043    3.1449 C
  51 H    6.8226   -1.0676    3.8123 H
  52 C    7.8486   -0.1463    3.1560 C
  53 H    8.6828    1.0202    2.7164 H
  54 H    8.4412   -0.9827    2.0608 H
  55 H    8.6499   -0.4116    4.3959 H
  56 C   -0.1099    3.0352   -1.6426 C
  57 O   -0.4260    2.8695   -3.0995 O
  58 N    0.6520    3.7227   -0.5487 N
  59 H    1.0286    3.0404    0.7330 H
  60 C    1.5838    4.8147   -0.1137 C
  61 H    2.7257    4.9586   -1.0756 H
  62 C    1.5262    6.1374   -0.8187 C
  63 H    2.6742    6.5390   -1.6967 H
  64 H    1.1807    5.9571   -2.2672 H
  65 H    1.8716    6.3178    0.6298 H
  66 C    0.8980    3.8339    0.4134 C
  67 O    0.7041    2.7212    3.9650 O
  68 N   -0.2651    2.9039    0.2336 N
  69 H    2.9583    0.1315    0.0118 H
  70 C   -1.6325    3.3156    0.6927 C
  71 H   -2.0441    3.8805   -0.6345 H
  72 C   -1.8324    4.7101    1.2080 C
  73 H   -1.2400    5.8834    0.4852 H
  74 H   -1.0301    4.3735    2.4299 H
  75 H   -3.3174    4.4986    1.2041 H
  76 C   -2.3277    2.1821    1.3868 C
  77 O   -3.8256    2.1027    1.3776 O
  78 N   -1.7705    1.6311    2.6658 N
  79 H   -0.5332    2.1762    3.3154 H
  80 H   -2.4812    0.4855    3.3236 H

@<TRIPOS>BOND
   1   1   2   1
   1   1  16   1
   1   2   3   1
   1   2   4   1
   1   2   5   1
   1   5   6   2
   1   5  14   1
   1   6   7   1
   1   6   8   1
   1   8   9   1
   1   8  10   2
   1  10  11   1
   1  10  12   1
   1  12  13   1
   1  12  14   2
   1  14  15   1
   1  16  17   2
   1  16  18   1
   1  17  39   4
   1  18  19   1
   1  18  20   1
   1  19  77   4
   1  20  21   1
   1  20  22   1
   1  20  26   1
   1  22  23   1
   1  22  24   1
   1  22  25   1
   1  26  27   2
   1  26  28   1
   1  28  29   1
   1  28  30   1
   1  29  77   4
   1  30  31   1
   1  30  32   1
   1  30  36   1
   1  32  33   1
   1  32  34   1
   1  32  35   1
   1  36  37   2
   1  36  38   1
   1  37  59   4
   1  38  39   1
   1  38  40   1
   1  40  41   1
   1  40  42   1
   1  40  46   1
   1  42  43   1
   1  42  44   1
   1  42  45   1
   1  46  47   2
   1  46  48   1
   1  47  69   4
   1  48  49   1
   1  48  50   1
   1  50  51   1
   1  50  52   1
   1  50  56   1
   1  52  53   1
   1  52  54   1
   1  52  55   1
   1  56  57   2
   1  56  58   1
   1  58  59   1
   1  58  60   1
   1  60  61   1
   1  60  62   1
   1  60  66   1
   1  62  63   1
   1  62  64   1
   1  62  65   1
   1  66  67   2
   1  66  68   1
   1  67  79   4
   1  68  69   1
   1  68  70   1
   1  70  71   1
   1  70  72   1
   1  70  76   1
   1  72  73   1
   1  72  74   1
   1  72  75   1
   1  76  77   2
   1  76  78   1
   1  78  79   1
   1  78  80   1
