@<TRIPOS>MOLECULE
*****
 80 86 0 0 0
SMALL
GASTEIGER

@<TRIPOS>ATOM
   1 O    0.0000    0.0000    0.0000 O
   2 C   -1.5000    0.0000    0.0000 C
   3 H   -1.5000    0.8817    1.2135 H
   4 H   -2.2500   -1.2990    0.0000 H
   5 C   -2.2500    1.0509   -0.7636 C
   6 C   -1.3787    2.0387   -1.4812 C
   7 H    0.1067    1.8318   -1.4534 H
   8 C   -2.5934    2.6508   -2.1135 C
   9 H   -2.4206    3.4291   -3.3842 H
  10 C   -3.9214    2.4547   -1.4443 C
  11 H   -5.0841    3.3268   -1.8150 H
  12 C   -4.5000    0.0000   -1.5271 C
  13 H   -5.1894   -0.3441   -2.8141 H
  14 C   -3.7500    1.0509   -0.7636 C
  15 H   -4.3717    2.1553    0.0388 H
  16 C    0.7500   -1.0509   -0.7636 C
  17 O    0.7234   -0.8752   -2.2530 O
  18 N    1.4875   -2.2083   -0.1580 N
  19 H    2.7580   -1.9318    0.5898 H
  20 C    0.9183   -3.5854   -0.3299 C
  21 H    1.1438   -4.6273    0.7254 H
  22 C   -0.4445   -2.9957   -0.5417 C
  23 H   -0.5904   -2.2066   -1.8091 H
  24 H   -1.6629   -3.8334   -0.7942 H
  25 H   -0.4524   -2.2660    0.7688 H
  26 C    0.8607   -4.2083   -1.6932 C
  27 O   -0.4655   -4.5377   -2.3118 O
  28 N    2.0386   -5.1089   -1.9203 N
  29 H    3.6282   -2.6507    2.3860 H
  30 C    1.5397   -5.3051   -4.2212 C
  31 H    2.7866   -5.8394   -3.5811 H
  32 C    0.8204   -6.3843   -4.9749 C
  33 H    1.0311   -6.5557   -6.4501 H
  34 H    1.5738   -7.4261   -4.2022 H
  35 H   -0.6748   -6.3124   -5.0706 H
  36 C    1.4978   -3.8895   -4.7155 C
  37 O    0.7306   -3.5360   -5.9550 O
  38 N    2.2369   -2.8339   -3.9479 N
  39 H    1.4802   -1.8545   -3.1004 H
  40 C    3.7269   -2.8708   -4.1169 C
  41 H    4.5472   -3.9235   -3.4321 H
  42 C    4.2832   -3.1486   -5.4820 C
  43 H    5.5685   -3.9221   -5.4840 H
  44 H    3.4514   -3.4302   -6.6980 H
  45 H    4.8412   -2.0082   -6.2807 H
  46 C    3.8404   -1.5560   -3.4039 C
  47 O    2.6025   -0.7933   -3.0355 O
  48 N    5.2480   -1.1217   -3.1209 N
  49 H    5.9897   -0.5997   -4.3157 H
  50 C    5.9241   -1.1753   -1.7830 C
  51 H    7.2081   -1.9466   -1.8628 H
  52 C    5.8589    0.0294   -0.8916 C
  53 H    4.5441    0.7305   -0.7193 H
  54 H    6.7494   -0.1404    0.3035 H
  55 H    6.9902    1.0138   -0.9231 H
  56 C    0.0086   -0.1008   -4.3245 C
  57 O   -0.3726    1.3309   -4.0898 O
  58 N   -0.4469   -0.8039   -5.5688 N
  59 H    0.1418   -2.1699   -5.7619 H
  60 C   -1.4070   -0.2511   -6.5801 C
  61 H   -1.2248   -0.9180   -7.9113 H
  62 C   -2.7697    0.2046   -6.1498 C
  63 H   -3.9493   -0.6781   -6.4317 H
  64 H   -2.7032    0.9237   -4.8351 H
  65 H   -3.1328    1.6509   -6.3119 H
  66 C    0.6784    1.8226    0.5177 C
  67 O    3.5558    3.7035    2.0987 O
  68 N    1.3630    0.4888    0.4678 N
  69 H    1.6162   -1.6417   -2.2888 H
  70 C    2.1581    0.0094    1.6459 C
  71 H    1.6611    0.6328    2.9165 H
  72 C    1.3530   -1.2446    1.8177 C
  73 H    1.5113   -1.7064    3.2360 H
  74 H   -0.0201   -1.8467    1.7748 H
  75 H    1.9748   -2.2911    0.9413 H
  76 C    3.6318   -0.2158    1.4797 C
  77 O    4.0286   -1.6554    1.3377 O
  78 N    4.5722    0.9527    1.4663 N
  79 H    4.0640    2.3281    1.7825 H
  80 H    5.9902    0.6056    1.1214 H

@<TRIPOS>BOND
   1   1   2   1
   1   1  16   1
   1   2   3   1
   1   2   4   1
   1   2   5   1
   1   5   6   2
   1   5  14   1
   1   6   7   1
   1   6   8   1
   1   8   9   1
   1   8  10   2
   1  10  11   1
   1  10  12   1
   1  12  13   1
   1  12  14   2
   1  14  15   1
   1  16  17   2
   1  16  18   1
   1  17  39   4
   1  18  19   1
   1  18  20   1
   1  19  77   4
   1  20  21   1
   1  20  22   1
   1  20  26   1
   1  22  23   1
   1  22  24   1
   1  22  25   1
   1  26  27   2
   1  26  28   1
   1  28  29   1
   1  28  30   1
   1  29  77   4
   1  30  31   1
   1  30  32   1
   1  30  36   1
   1  32  33   1
   1  32  34   1
   1  32  35   1
   1  36  37   2
   1  36  38   1
   1  37  59   4
   1  38  39   1
   1  38  40   1
   1  40  41   1
   1  40  42   1
   1  40  46   1
   1  42  43   1
   1  42  44   1
   1  42  45   1
   1  46  47   2
   1  46  48   1
   1  47  69   4
   1  48  49   1
   1  48  50   1
   1  50  51   1
   1  50  52   1
   1  50  56   1
   1  52  53   1
   1  52  54   1
   1  52  55   1
   1  56  57   2
   1  56  58   1
   1  58  59   1
   1  58  60   1
   1  60  61   1
   1  60  62   1
   1  60  66   1
   1  62  63   1
   1  62  64   1
   1  62  65   1
   1  66  67   2
   1  66  68   1
   1  67  79   4
   1  68  69   1
   1  68  70   1
   1  70  71   1
   1  70  72   1
   1  70  76   1
   1  72  73   1
   1  72  74   1
   1  72  75   1
   1  76  77   2
   1  76  78   1
   1  78  79   1
   1  78  80   1
