@<TRIPOS>MOLECULE
*****
 80 86 0 0 0
SMALL
GASTEIGER

@<TRIPOS>ATOM
   1 O    0.0000    0.0000    0.0000 O
   2 C   -0.0000   -0.0000    1.5000 C
   3 H    1.2355    0.6613    2.0351 H
   4 H   -1.2944    0.1101    2.2500 H
   5 C   -0.3206   -0.6930    2.7911 C
   6 C   -1.7472   -0.9832    3.1525 C
   7 H   -2.7516    0.1300    3.1947 H
   8 C   -2.0326   -2.4259    3.4477 C
   9 H   -1.6809   -3.3695    2.3359 H
  10 C   -1.8948   -2.7429    4.9073 C
  11 H   -3.0651   -3.2901    5.6697 H
  12 C    0.1737    0.2462    5.1625 C
  13 H    0.5282    0.5751    6.5824 H
  14 C    0.6617   -0.3147    3.8598 C
  15 H    2.0978   -0.5486    3.4952 H
  16 C   -0.0000   -1.4266   -0.4635 C
  17 O    1.1112   -1.7728   -1.4098 O
  18 N   -0.9938   -2.4744   -0.0582 N
  19 H   -0.5947   -3.8778   -0.4066 H
  20 C   -2.2966   -2.2164    0.6390 C
  21 H   -2.3275   -1.2348    1.7727 H
  22 C   -2.9956   -1.7524   -0.6044 C
  23 H   -4.4310   -1.3213   -0.5414 H
  24 H   -3.6946   -1.2883   -1.8478 H
  25 H   -2.0413   -1.0502   -1.5244 H
  26 C   -3.1017   -3.4770    0.7525 C
  27 O   -3.2461   -4.2402   -0.5307 O
  28 N   -3.7386   -3.9940    2.0083 N
  29 H   -1.4571   -5.0140    0.0112 H
  30 C   -0.6670   -5.8851   -0.8875 C
  31 H   -0.4148   -5.8427    0.5906 H
  32 C   -1.6116   -6.3224   -1.9675 C
  33 H   -1.4032   -7.6240   -2.6833 H
  34 H   -1.1732   -5.1675   -2.8185 H
  35 H   -2.7658   -6.1623   -1.0229 H
  36 C    0.4921   -5.6719   -1.8153 C
  37 O    0.5214   -6.4152   -3.1178 O
  38 N    1.6019   -4.7322   -1.4473 N
  39 H    1.3565   -3.2525   -1.4285 H
  40 C    2.9987   -5.1355   -1.0782 C
  41 H    3.6321   -4.5199    0.1342 H
  42 C    3.4277   -4.0421   -2.0111 C
  43 H    3.8568   -2.9486   -2.9440 H
  44 H    3.1433   -3.0231   -0.9476 H
  45 H    3.8769   -5.4461   -2.2883 H
  46 C    3.2403   -5.9677    0.1462 C
  47 O    2.8956   -7.4054   -0.1074 O
  48 N    4.3598   -5.6186    1.0815 N
  49 H    4.1002   -6.1645    2.4543 H
  50 C    5.7652   -5.5222    0.5661 C
  51 H    6.6843   -4.9747    1.6174 H
  52 C    6.2723   -6.5300   -0.4224 C
  53 H    7.7135   -6.2214   -0.7011 H
  54 H    5.3788   -7.0500   -1.5093 H
  55 H    5.8616   -5.6304   -1.5503 H
  56 C    3.7513   -8.3623   -3.6055 C
  57 O    4.4172   -7.7836   -4.8186 O
  58 N    2.5070   -8.6439   -2.8166 N
  59 H    1.5142   -7.5295   -2.9672 H
  60 C    2.3045   -9.8517   -1.9505 C
  61 H    3.7538   -10.2058   -2.1054 H
  62 C    1.2946   -10.3813   -2.9250 C
  63 H    0.6615   -9.2638   -3.6999 H
  64 H    1.5068   -11.7173   -3.5732 H
  65 H    0.4480   -11.5526   -2.5235 H
  66 C    3.6310   -7.6244   -2.4529 C
  67 O    3.6371   -7.1768    2.1617 O
  68 N    2.6398   -6.7968   -1.6896 N
  69 H    1.5806   -7.9079   -0.6255 H
  70 C    1.2664   -7.3344   -1.4163 C
  71 H    0.8822   -8.7803   -1.5248 H
  72 C   -0.1012   -7.7126   -1.9029 C
  73 H   -0.0400   -8.9277   -2.7802 H
  74 H   -1.2992   -7.4761   -1.0317 H
  75 H   -1.0736   -6.6228   -2.2446 H
  76 C    0.6504   -6.4574   -0.3668 C
  77 O   -0.1955   -5.2811   -0.7550 O
  78 N    0.8693   -6.7408    1.0898 N
  79 H    2.2532   -6.9588    1.6258 H
  80 H   -0.3208   -6.8023    2.0008 H

@<TRIPOS>BOND
   1   1   2   1
   1   1  16   1
   1   2   3   1
   1   2   4   1
   1   2   5   1
   1   5   6   2
   1   5  14   1
   1   6   7   1
   1   6   8   1
   1   8   9   1
   1   8  10   2
   1  10  11   1
   1  10  12   1
   1  12  13   1
   1  12  14   2
   1  14  15   1
   1  16  17   2
   1  16  18   1
   1  17  39   4
   1  18  19   1
   1  18  20   1
   1  19  77   4
   1  20  21   1
   1  20  22   1
   1  20  26   1
   1  22  23   1
   1  22  24   1
   1  22  25   1
   1  26  27   2
   1  26  28   1
   1  28  29   1
   1  28  30   1
   1  29  77   4
   1  30  31   1
   1  30  32   1
   1  30  36   1
   1  32  33   1
   1  32  34   1
   1  32  35   1
   1  36  37   2
   1  36  38   1
   1  37  59   4
   1  38  39   1
   1  38  40   1
   1  40  41   1
   1  40  42   1
   1  40  46   1
   1  42  43   1
   1  42  44   1
   1  42  45   1
   1  46  47   2
   1  46  48   1
   1  47  69   4
   1  48  49   1
   1  48  50   1
   1  50  51   1
   1  50  52   1
   1  50  56   1
   1  52  53   1
   1  52  54   1
   1  52  55   1
   1  56  57   2
   1  56  58   1
   1  58  59   1
   1  58  60   1
   1  60  61   1
   1  60  62   1
   1  60  66   1
   1  62  63   1
   1  62  64   1
   1  62  65   1
   1  66  67   2
   1  66  68   1
   1  67  79   4
   1  68  69   1
   1  68  70   1
   1  70  71   1
   1  70  72   1
   1  70  76   1
   1  72  73   1
   1  72  74   1
   1  72  75   1
   1  76  77   2
   1  76  78   1
   1  78  79   1
   1  78  80   1
