@<TRIPOS>MOLECULE
*****
 80 86 0 0 0
SMALL
GASTEIGER

@<TRIPOS>ATOM
   1 O    0.0000    0.0000    0.0000 O
   2 C   -0.0000    1.4266   -0.4635 C
   3 H    0.4072    1.0853   -1.8663 H
   4 H   -1.2943    2.1520   -0.2430 H
   5 C    1.3569    2.0567   -0.3556 C
   6 C    2.6581    1.3150   -0.2735 C
   7 H    3.1638    0.5730    0.9281 H
   8 C    3.5748    1.2750   -1.4601 C
   9 H    5.0222    1.4974   -1.1353 H
  10 C    3.0173    1.0277   -2.8305 C
  11 H    3.9501    1.0969   -4.0032 H
  12 C    0.9250    4.3517   -1.4576 C
  13 H    0.6336    5.6793   -2.0920 H
  14 C    1.4897    3.5505   -0.3222 C
  15 H    2.5843    3.3215    0.6775 H
  16 C   -0.0000   -0.0000    1.5000 C
  17 O    1.2990    0.2318    2.2133 O
  18 N   -1.5000   -0.0000    1.5000 N
  19 H   -2.2500    0.4014    0.2645 H
  20 C   -2.1217   -0.4218    2.7983 C
  21 H   -2.0673   -1.8592    3.2239 H
  22 C   -2.0673    0.4908    3.9874 C
  23 H   -0.7158    1.1299    4.1101 H
  24 H   -1.9290   -0.0675    5.3728 H
  25 H   -3.2937    1.2424    4.4128 H
  26 C   -3.5940   -0.5105    3.0711 C
  27 O   -4.2534    0.4984    3.9641 O
  28 N   -3.5940   -1.9371    2.6076 N
  29 H   -4.2944    0.6928   -0.2209 H
  30 C    2.5635    0.6300    6.9364 C
  31 H    1.9159    1.9668    6.7277 H
  32 C    2.7918    0.1162    8.3271 C
  33 H    2.4278   -1.3388    8.3493 H
  34 H    3.9335    0.6304    9.1532 H
  35 H    1.3815    0.4746    8.6911 H
  36 C    2.2780   -0.4977    5.9895 C
  37 O    3.2029   -1.6755    5.9038 O
  38 N    1.0509   -0.4263    5.1297 N
  39 H    1.1750   -0.0973    3.6715 H
  40 C   -0.2327   -0.7050    5.8539 C
  41 H   -0.6381    0.7295    5.6875 H
  42 C   -0.2232   -1.0938    7.3026 C
  43 H    1.1173   -1.7642    7.2423 H
  44 H   -0.4599   -0.0671    8.3703 H
  45 H   -1.5016   -1.7816    7.6805 H
  46 C   -0.6031   -1.7152    4.8087 C
  47 O    0.0865   -1.7035    3.4767 O
  48 N   -1.6405   -2.7877    4.9623 N
  49 H   -2.9198   -2.3959    4.2841 H
  50 C   -1.2278   -4.2290    5.0100 C
  51 H   -1.6722   -5.0699    6.1699 H
  52 C   -1.2338   -5.0248    3.7386 C
  53 H   -1.3112   -6.4947    4.0277 H
  54 H   -0.3902   -4.5578    2.5896 H
  55 H   -2.3292   -4.2257    3.0972 H
  56 C    3.8772   -2.9643    2.2003 C
  57 O    4.4351   -4.1965    1.5519 O
  58 N    3.1425   -3.3843    3.4388 N
  59 H    3.1727   -2.5299    4.6713 H
  60 C    2.3771   -4.6742    3.4224 C
  61 H    3.3799   -5.7801    3.2765 H
  62 C    1.7928   -5.1783    4.7087 C
  63 H    0.3046   -5.2779    4.8683 H
  64 H    2.6474   -4.7826    5.8761 H
  65 H    1.9308   -6.6207    5.0965 H
  66 C   -1.7560   -3.4936   -0.3541 C
  67 O    1.3212   -1.1509   -1.1332 O
  68 N   -2.6111   -2.2617   -0.3219 N
  69 H   -0.9430   -1.3330    2.4505 H
  70 C   -3.0246   -1.6349   -1.6204 C
  71 H   -3.0146   -1.7671   -3.1146 H
  72 C   -4.1844   -0.9769   -0.9335 C
  73 H   -3.7229   -0.1784    0.2494 H
  74 H   -5.4853   -1.7181   -0.8420 H
  75 H   -5.0021    0.1345   -1.5220 H
  76 C   -2.3377   -0.3062   -1.7333 C
  77 O   -3.0000    0.8028   -0.9709 O
  78 N   -1.0916   -0.0338   -2.5227 N
  79 H    0.1148   -0.5924   -1.8280 H
  80 H   -1.0624    0.6566   -3.8540 H

@<TRIPOS>BOND
   1   1   2   1
   1   1  16   1
   1   2   3   1
   1   2   4   1
   1   2   5   1
   1   5   6   2
   1   5  14   1
   1   6   7   1
   1   6   8   1
   1   8   9   1
   1   8  10   2
   1  10  11   1
   1  10  12   1
   1  12  13   1
   1  12  14   2
   1  14  15   1
   1  16  17   2
   1  16  18   1
   1  17  39   4
   1  18  19   1
   1  18  20   1
   1  19  77   4
   1  20  21   1
   1  20  22   1
   1  20  26   1
   1  22  23   1
   1  22  24   1
   1  22  25   1
   1  26  27   2
   1  26  28   1
   1  28  29   1
   1  28  30   1
   1  29  77   4
   1  30  31   1
   1  30  32   1
   1  30  36   1
   1  32  33   1
   1  32  34   1
   1  32  35   1
   1  36  37   2
   1  36  38   1
   1  37  59   4
   1  38  39   1
   1  38  40   1
   1  40  41   1
   1  40  42   1
   1  40  46   1
   1  42  43   1
   1  42  44   1
   1  42  45   1
   1  46  47   2
   1  46  48   1
   1  47  69   4
   1  48  49   1
   1  48  50   1
   1  50  51   1
   1  50  52   1
   1  50  56   1
   1  52  53   1
   1  52  54   1
   1  52  55   1
   1  56  57   2
   1  56  58   1
   1  58  59   1
   1  58  60   1
   1  60  61   1
   1  60  62   1
   1  60  66   1
   1  62  63   1
   1  62  64   1
   1  62  65   1
   1  66  67   2
   1  66  68   1
   1  67  79   4
   1  68  69   1
   1  68  70   1
   1  70  71   1
   1  70  72   1
   1  70  76   1
   1  72  73   1
   1  72  74   1
   1  72  75   1
   1  76  77   2
   1  76  78   1
   1  78  79   1
   1  78  80   1
