@<TRIPOS>MOLECULE
*****
 12 12 0 0 0
SMALL
GASTEIGER

@<TRIPOS>ATOM
   1 C    0.0000    0.0000    0.0000 C
   2 C    0.8713    0.9878    0.7177 C
   3 C    0.2496    2.0922    1.5200 C
   4 C   -1.2458    2.1414    1.6271 C
   5 C   -1.9296    1.7167    0.3468 C
   6 C   -1.2990    0.6068   -0.4408 C
   7 H    0.7500   -1.0509   -0.7636 H
   8 H    2.3436    0.7557    0.5490 H
   9 H    1.1537    3.0933    2.1761 H
  10 H   -1.2621    3.2646    2.6211 H
  11 H   -3.2145    2.3801   -0.0519 H
  12 H   -1.9910    0.1145   -1.6773 H

@<TRIPOS>BOND
   1   1   2   1
   1   1   6   1
   1   1   7   1
   1   2   3   1
   1   2   8   1
   1   3   4   1
   1   3   9   1
   1   4   5   1
   1   4  10   1
   1   5   6   1
   1   5  11   1
   1   6  12   1
