@<TRIPOS>MOLECULE
*****
 12 12 0 0 0
SMALL
GASTEIGER

@<TRIPOS>ATOM
   1 C    0.0000    0.0000    0.0000 C
   2 C    0.7500   -1.0509   -0.7636 C
   3 C    2.2431   -1.1675   -0.8483 C
   4 C    3.1144   -0.1798   -0.1306 C
   5 C    2.3653    0.9087    0.6086 C
   6 C    0.8713    0.9878    0.7177 C
   7 H   -1.5000    0.0000    0.0000 H
   8 H   -0.0000   -2.1019   -1.5271 H
   9 H    2.7308   -2.3151   -1.6820 H
  10 H    4.6075   -0.2963   -0.2153 H
  11 H    3.2328    1.9663    1.2241 H
  12 H    0.2645    2.0725    1.5574 H

@<TRIPOS>BOND
   1   1   2   1
   1   1   6   1
   1   1   7   1
   1   2   3   1
   1   2   8   1
   1   3   4   1
   1   3   9   1
   1   4   5   1
   1   4  10   1
   1   5   6   1
   1   5  11   1
   1   6  12   1
