@<TRIPOS>MOLECULE
*****
 12 12 0 0 0
SMALL
GASTEIGER

@<TRIPOS>ATOM
   1 C    0.0000    0.0000    0.0000 C
   2 C   -1.5000    0.0000    0.0000 C
   3 C   -2.2636    1.0699    0.7226 C
   4 C   -1.5535    2.3466    1.0633 C
   5 C   -0.1872    2.4580    0.1686 C
   6 C    0.7500    1.2990    0.0000 C
   7 H   -0.0000   -1.4266   -0.4635 H
   8 H   -2.2226   -1.0893   -0.7357 H
   9 H   -3.6217    0.5642    0.3356 H
  10 H   -1.9184    3.2742    2.1842 H
  11 H    0.0910    3.7273   -0.5808 H
  12 H    2.2418    1.4195   -0.1007 H

@<TRIPOS>BOND
   1   1   2   1
   1   1   6   1
   1   1   7   1
   1   2   3   1
   1   2   8   1
   1   3   4   1
   1   3   9   1
   1   4   5   1
   1   4  10   1
   1   5   6   1
   1   5  11   1
   1   6  12   1
