@<TRIPOS>MOLECULE
*****
 12 12 0 0 0
SMALL
GASTEIGER

@<TRIPOS>ATOM
   1 C    0.0000    0.0000    0.0000 C
   2 C   -0.0000   -0.8817    1.2135 C
   3 C   -0.9273   -0.3463    2.2640 C
   4 C   -0.6022    1.1075    2.4396 C
   5 C    0.8266    1.8727    1.3838 C
   6 C    0.7500    1.2990    0.0000 C
   7 H   -0.7500   -0.4014   -1.2355 H
   8 H    0.7810   -2.1562    1.3385 H
   9 H   -1.7975   -1.4854    2.7058 H
  10 H   -1.3236    1.9999    3.4055 H
  11 H    2.0321    2.6607    1.8034 H
  12 H    1.3846    1.9144   -1.2119 H

@<TRIPOS>BOND
   1   1   2   1
   1   1   6   1
   1   1   7   1
   1   2   3   1
   1   2   8   1
   1   3   4   1
   1   3   9   1
   1   4   5   1
   1   4  10   1
   1   5   6   1
   1   5  11   1
   1   6  12   1
