@<TRIPOS>MOLECULE
*****
 12 12 0 0 0
SMALL
GASTEIGER

@<TRIPOS>ATOM
   1 C    0.0000    0.0000    0.0000 C
   2 C    0.7500   -1.0509   -0.7636 C
   3 C    2.2472   -1.1179   -0.7008 C
   4 C    3.1310   -0.1693    0.0536 C
   5 C    2.2769    1.0682    0.2000 C
   6 C    0.8713    0.9878    0.7177 C
   7 H   -1.5000    0.0000    0.0000 H
   8 H   -0.0243   -2.0338   -1.5910 H
   9 H    2.9808   -2.2019   -1.4333 H
  10 H    4.0147    0.7793    0.8080 H
  11 H    2.8531    2.2544   -0.5147 H
  12 H    0.3132    1.7948    1.8522 H

@<TRIPOS>BOND
   1   1   2   1
   1   1   6   1
   1   1   7   1
   1   2   3   1
   1   2   8   1
   1   3   4   1
   1   3   9   1
   1   4   5   1
   1   4  10   1
   1   5   6   1
   1   5  11   1
   1   6  12   1
