@<TRIPOS>MOLECULE
*****
 12 12 0 0 0
SMALL
GASTEIGER

@<TRIPOS>ATOM
   1 C    0.0000    0.0000    0.0000 C
   2 C    0.8713   -1.2210    0.0000 C
   3 C    1.9894   -1.3611   -0.9901 C
   4 C    2.6254   -0.1475   -1.6005 C
   5 C    1.8561    1.5421   -0.9836 C
   6 C    0.7500    1.2990    0.0000 C
   7 H   -1.5000    0.0000    0.0000 H
   8 H    0.6044   -2.2993    1.0080 H
   9 H    2.4601   -2.7368   -1.3587 H
  10 H    3.9716   -0.1347   -2.2619 H
  11 H    2.0787    2.9185   -1.5368 H
  12 H    0.4075    2.3785    0.9836 H

@<TRIPOS>BOND
   1   1   2   1
   1   1   6   1
   1   1   7   1
   1   2   3   1
   1   2   8   1
   1   3   4   1
   1   3   9   1
   1   4   5   1
   1   4  10   1
   1   5   6   1
   1   5  11   1
   1   6  12   1
