@<TRIPOS>MOLECULE
*****
 12 12 0 0 0
SMALL
GASTEIGER

@<TRIPOS>ATOM
   1 C    0.0000    0.0000    0.0000 C
   2 C    0.7500    0.4014    1.2355 C
   3 C    0.7774    1.8392    1.6623 C
   4 C   -0.3359    2.7615    1.2625 C
   5 C   -0.6270    2.4057   -0.1315 C
   6 C   -0.7500    1.0509   -0.7636 C
   7 H   -0.0000   -1.4266   -0.4635 H
   8 H    2.0351   -0.2864    1.5894 H
   9 H    1.9729    2.2212    2.4836 H
  10 H   -0.8101    3.8208    2.2128 H
  11 H   -0.4075    3.6164   -0.9894 H
  12 H   -0.9011    1.0725   -2.2558 H

@<TRIPOS>BOND
   1   1   2   1
   1   1   6   1
   1   1   7   1
   1   2   3   1
   1   2   8   1
   1   3   4   1
   1   3   9   1
   1   4   5   1
   1   4  10   1
   1   5   6   1
   1   5  11   1
   1   6  12   1
