@<TRIPOS>MOLECULE
*****
 12 12 0 0 0
SMALL
GASTEIGER

@<TRIPOS>ATOM
   1 C    0.0000    0.0000    0.0000 C
   2 C    0.7500    1.2990    0.0000 C
   3 C    2.0351    1.4231   -0.7636 C
   4 C    2.7799    0.1332   -0.5857 C
   5 C    2.2418   -1.2076   -0.7529 C
   6 C    0.7500   -1.0509   -0.7636 C
   7 H   -1.5000    0.0000    0.0000 H
   8 H    0.3302    2.5475    0.7177 H
   9 H    2.7764    2.7095   -0.9773 H
  10 H    4.2489   -0.0415   -0.8332 H
  11 H    2.9808   -2.5129   -0.7472 H
  12 H   -0.1872   -1.8895   -1.5812 H

@<TRIPOS>BOND
   1   1   2   1
   1   1   6   1
   1   1   7   1
   1   2   3   1
   1   2   8   1
   1   3   4   1
   1   3   9   1
   1   4   5   1
   1   4  10   1
   1   5   6   1
   1   5  11   1
   1   6  12   1
