@<TRIPOS>MOLECULE
*****
 12 12 0 0 0
SMALL
GASTEIGER

@<TRIPOS>ATOM
   1 C    0.0000    0.0000    0.0000 C
   2 C    0.7500    0.4014   -1.2355 C
   3 C    0.7226    1.8392   -1.6623 C
   4 C    1.1715    2.1341   -0.2617 C
   5 C    1.6124    0.9199    1.0267 C
   6 C    0.8713   -0.3773    1.1612 C
   7 H   -1.5000    0.0000    0.0000 H
   8 H    1.5136   -0.6165   -2.0297 H
   9 H   -0.0274    2.2406   -2.8978 H
  10 H    0.8717    3.4597    0.3729 H
  11 H    2.8233    1.1831    1.8719 H
  12 H    0.0931   -1.3480    1.9992 H

@<TRIPOS>BOND
   1   1   2   1
   1   1   6   1
   1   1   7   1
   1   2   3   1
   1   2   8   1
   1   3   4   1
   1   3   9   1
   1   4   5   1
   1   4  10   1
   1   5   6   1
   1   5  11   1
   1   6  12   1
