@<TRIPOS>MOLECULE
*****
 12 12 0 0 0
SMALL
GASTEIGER

@<TRIPOS>ATOM
   1 C    0.0000    0.0000    0.0000 C
   2 C   -0.0000   -0.0000    1.5000 C
   3 C    1.2265    0.2656    2.3216 C
   4 C    2.1732    1.0480    1.4603 C
   5 C    2.5345    0.4522    0.1083 C
   6 C    1.2990    0.2318   -0.7133 C
   7 H   -1.2990   -0.2318   -0.7133 H
   8 H   -1.2897   -0.2793    2.2133 H
   9 H    1.7455   -0.6460    3.3938 H
  10 H    2.6200    2.4572    1.7140 H
  11 H    3.2561   -0.6239    0.8641 H
  12 H    1.4231    0.2539   -2.2080 H

@<TRIPOS>BOND
   1   1   2   1
   1   1   6   1
   1   1   7   1
   1   2   3   1
   1   2   8   1
   1   3   4   1
   1   3   9   1
   1   4   5   1
   1   4  10   1
   1   5   6   1
   1   5  11   1
   1   6  12   1
