@<TRIPOS>MOLECULE
*****
 24 24 0 0 0
SMALL
GASTEIGER

@<TRIPOS>ATOM
   1 N    0.0000    0.0000    0.0000 N
   2 H   -0.0000   -0.0000    1.5000 H
   3 C    1.5000    0.0000    0.0000 C
   4 H   -0.7500    1.0509   -0.7636 H
   5 H   -0.8713   -0.9878   -0.7177 H
   6 H    1.5000    0.8817    1.2135 H
   7 C    1.5000   -1.4266    0.4635 C
   8 C    2.2500    0.4014   -1.2355 C
   9 O    0.9481   -2.4825   -0.4478 O
  10 H    1.9075    1.6705   -1.9581 H
  11 H    3.7106    0.7197   -1.1114 H
  12 H    2.2500    0.4014   -2.7355 H
  13 N    2.0421   -1.7907    1.8139 N
  14 H    3.5396   -1.8189    1.8958 H
  15 C    0.9684   -2.4055    2.8394 C
  16 H    1.9096   -3.2730    3.6214 H
  17 C    0.1024   -1.3975    3.5351 C
  18 C    0.3520   -3.6275    2.2255 C
  19 O   -0.0000   -0.0000    3.0000 O
  20 H   -0.7398   -3.4545    1.2117 H
  21 H   -0.1028   -4.1915    3.5389 H
  22 H    1.3843   -4.6924    2.0013 H
  23 O   -0.6039   -1.9188    4.7515 O
  24 H   -1.7142   -2.8640    4.3996 H

@<TRIPOS>BOND
   1   1   2   1
   1   1   3   1
   1   1   4   1
   1   1   5   1
   1   2  19   4
   1   3   6   1
   1   3   7   1
   1   3   8   1
   1   7   9   2
   1   7  13   1
   1   8  10   1
   1   8  11   1
   1   8  12   1
   1  13  14   1
   1  13  15   1
   1  15  16   1
   1  15  17   1
   1  15  18   1
   1  17  19   2
   1  17  23   1
   1  18  20   1
   1  18  21   1
   1  18  22   1
   1  23  24   1
