@<TRIPOS>MOLECULE
*****
 24 24 0 0 0
SMALL
GASTEIGER

@<TRIPOS>ATOM
   1 N    0.0000    0.0000    0.0000 N
   2 H   -0.7500   -0.4014   -1.2355 H
   3 C   -0.7500   -0.4014    1.2355 C
   4 H    1.2990   -0.6068    0.4408 H
   5 H    0.7500    1.2990    0.0000 H
   6 H   -0.3012   -0.1065    2.6360 H
   7 C   -1.8818    0.3948    0.6565 C
   8 C   -0.6810   -1.8724    0.9500 C
   9 O   -1.6144    1.6574   -0.1080 O
  10 H    0.4662   -2.6558    1.5158 H
  11 H   -0.8428   -1.7186   -0.5333 H
  12 H   -2.0395   -2.5078    0.9221 H
  13 N   -3.3013   -0.0572    0.8316 N
  14 H   -4.0343    0.2487    2.1040 H
  15 C   -3.7088   -0.8198   -1.1440 C
  16 H   -4.7125   -1.7931   -0.6007 H
  17 C   -2.7851   -1.4907   -2.1170 C
  18 C   -4.1427    0.5904   -1.4143 C
  19 O   -1.5000   -0.8028   -2.4709 O
  20 H   -3.5754    1.3550   -2.5734 H
  21 H   -4.3570    1.5532   -0.2842 H
  22 H   -5.5307    0.8657   -1.9120 H
  23 O   -2.5561   -2.4846   -3.2168 O
  24 H   -3.7062   -2.9468   -4.0616 H

@<TRIPOS>BOND
   1   1   2   1
   1   1   3   1
   1   1   4   1
   1   1   5   1
   1   2  19   4
   1   3   6   1
   1   3   7   1
   1   3   8   1
   1   7   9   2
   1   7  13   1
   1   8  10   1
   1   8  11   1
   1   8  12   1
   1  13  14   1
   1  13  15   1
   1  15  16   1
   1  15  17   1
   1  15  18   1
   1  17  19   2
   1  17  23   1
   1  18  20   1
   1  18  21   1
   1  18  22   1
   1  23  24   1
