@<TRIPOS>MOLECULE
*****
 24 24 0 0 0
SMALL
GASTEIGER

@<TRIPOS>ATOM
   1 N    0.0000    0.0000    0.0000 N
   2 H   -0.0000   -0.8817    1.2135 H
   3 C    0.7500   -1.0509   -0.7636 C
   4 H    0.7500    1.2990    0.0000 H
   5 H   -0.7500    1.0509    0.7636 H
   6 H    1.4262   -1.3595    0.5393 H
   7 C   -0.7431   -1.1675   -0.8483 C
   8 C    1.3956   -1.5067   -2.0385 C
   9 O   -1.2340   -0.7762   -2.2106 O
  10 H    1.0138   -0.2129   -2.6944 H
  11 H    2.8378   -1.8527   -1.8142 H
  12 H    1.6323   -2.9735   -2.2444 H
  13 N   -1.4574   -2.2333   -0.0712 N
  14 H   -2.7399   -2.8965   -0.4779 H
  15 C   -1.2467   -3.8002    1.4039 C
  16 H   -2.5223   -4.5799    1.2811 H
  17 C   -1.1597   -2.7147    2.4354 C
  18 C    0.0594   -4.5274    1.2808 C
  19 O   -0.0000   -1.7634    2.4271 O
  20 H    0.7366   -4.8449   -0.0195 H
  21 H    0.5504   -3.2768    0.6139 H
  22 H    0.8361   -5.0820    2.4380 H
  23 O   -1.6311   -2.9715    3.8361 O
  24 H   -1.1760   -1.8827    4.7620 H

@<TRIPOS>BOND
   1   1   2   1
   1   1   3   1
   1   1   4   1
   1   1   5   1
   1   2  19   4
   1   3   6   1
   1   3   7   1
   1   3   8   1
   1   7   9   2
   1   7  13   1
   1   8  10   1
   1   8  11   1
   1   8  12   1
   1  13  14   1
   1  13  15   1
   1  15  16   1
   1  15  17   1
   1  15  18   1
   1  17  19   2
   1  17  23   1
   1  18  20   1
   1  18  21   1
   1  18  22   1
   1  23  24   1
