@<TRIPOS>MOLECULE
*****
 34 34 0 0 0
SMALL
GASTEIGER

@<TRIPOS>ATOM
   1 N    0.0000    0.0000    0.0000 N
   2 H   -0.0000   -1.4266    0.4635 H
   3 H    0.7500    0.4014   -1.2355 H
   4 H    0.7500    0.4014    1.2355 H
   5 C   -1.5000    0.0000    0.0000 C
   6 H   -2.2636    0.3885    1.2313 H
   7 C   -1.5000   -1.4266   -0.4635 C
   8 O   -0.3888   -1.7728   -1.4098 O
   9 C   -1.5000    1.1147   -1.0037 C
  10 H   -0.7500    2.3854   -0.7336 H
  11 H   -3.0000    1.1147   -1.0037 H
  12 H   -0.7500    0.2455   -1.9691 H
  13 N   -2.4938   -2.4744   -0.0582 N
  14 C   -3.9407   -2.1132    0.1037 C
  15 H   -1.9076   -3.8390    0.1525 H
  16 H   -4.0981   -0.6486    0.3867 H
  17 C   -4.0691   -3.1220    1.2063 C
  18 O   -5.3811   -3.2993    1.9116 O
  19 C   -4.9516   -2.1348   -1.0043 C
  20 H   -6.0362   -3.1710   -1.0098 H
  21 H   -5.4383   -0.8474   -1.6007 H
  22 H   -3.8436   -2.1838   -2.0142 H
  23 N   -3.0772   -4.2572    1.3103 N
  24 C   -1.8277   -4.3684    2.1327 C
  25 H   -3.8668   -4.8277    0.1697 H
  26 H   -1.4710   -5.6724    2.7825 H
  27 C   -0.5941   -3.6171    1.7279 C
  28 O   -0.6305   -2.7875    0.4787 O
  29 C   -2.6325   -4.8928    3.2848 C
  30 H   -3.9026   -4.1119    3.4496 H
  31 H   -1.4889   -4.8709    4.2552 H
  32 H   -3.4277   -6.1573    3.1478 H
  33 O    0.6534   -3.6940    2.5573 O
  34 H    1.5654   -4.7730    2.0533 H

@<TRIPOS>BOND
   1   1   2   1
   1   1   3   1
   1   1   4   1
   1   1   5   1
   1   2  28   4
   1   5   6   1
   1   5   7   1
   1   5   9   1
   1   7   8   2
   1   7  13   1
   1   9  10   1
   1   9  11   1
   1   9  12   1
   1  13  14   1
   1  13  15   1
   1  14  16   1
   1  14  17   1
   1  14  19   1
   1  17  18   2
   1  17  23   1
   1  19  20   1
   1  19  21   1
   1  19  22   1
   1  23  24   1
   1  23  25   1
   1  24  26   1
   1  24  27   1
   1  24  29   1
   1  27  28   2
   1  27  33   1
   1  29  30   1
   1  29  31   1
   1  29  32   1
   1  33  34   1
