@<TRIPOS>MOLECULE
*****
 34 34 0 0 0
SMALL
GASTEIGER

@<TRIPOS>ATOM
   1 N    0.0000    0.0000    0.0000 N
   2 H   -0.0000   -1.4266    0.4635 H
   3 H    0.7500    0.4014   -1.2355 H
   4 H   -1.5000    0.0000    0.0000 H
   5 C    0.7500    0.4014    1.2355 C
   6 H    0.7500    1.8280    0.7719 H
   7 C    2.0351   -0.3631    1.3534 C
   8 O    1.9787   -1.7612    0.8130 O
   9 C   -0.4250    0.2361    2.1531 C
  10 H   -0.5227    1.7260    2.2965 H
  11 H   -0.3135   -0.3336    3.5362 H
  12 H   -1.7173   -0.2597    1.5750 H
  13 N    2.6334    0.5570    2.3760 N
  14 C    3.0566    0.0205    3.7113 C
  15 H    2.1357    1.9667    2.4989 H
  16 H    1.9230   -0.3072    4.6373 H
  17 C    3.0133   -1.3755    3.1641 C
  18 O    2.4154   -2.4634    4.0061 O
  19 C    3.7896    0.8481    4.7250 C
  20 H    2.5579    1.2183    5.4969 H
  21 H    4.6039    2.0654    4.4006 H
  22 H    4.9727    0.2420    5.4199 H
  23 N    2.3552   -2.0767    2.3648 N
  24 C    1.4136   -3.0516    3.0073 C
  25 H    3.2968   -1.1018    1.7223 H
  26 H    1.4437   -4.5034    2.6312 H
  27 C    0.0368   -2.9292    2.4247 C
  28 O   -0.0000   -2.8532    0.9271 O
  29 C    1.5870   -3.4219    4.4505 C
  30 H    0.5606   -4.1438    5.2724 H
  31 H    1.6288   -2.3217    5.4692 H
  32 H    2.7881   -4.2885    4.2128 H
  33 O   -1.2405   -2.8808    3.2097 O
  34 H   -2.4121   -2.6208    2.3099 H

@<TRIPOS>BOND
   1   1   2   1
   1   1   3   1
   1   1   4   1
   1   1   5   1
   1   2  28   4
   1   5   6   1
   1   5   7   1
   1   5   9   1
   1   7   8   2
   1   7  13   1
   1   9  10   1
   1   9  11   1
   1   9  12   1
   1  13  14   1
   1  13  15   1
   1  14  16   1
   1  14  17   1
   1  14  19   1
   1  17  18   2
   1  17  23   1
   1  19  20   1
   1  19  21   1
   1  19  22   1
   1  23  24   1
   1  23  25   1
   1  24  26   1
   1  24  27   1
   1  24  29   1
   1  27  28   2
   1  27  33   1
   1  29  30   1
   1  29  31   1
   1  29  32   1
   1  33  34   1
