@<TRIPOS>MOLECULE
*****
 34 34 0 0 0
SMALL
GASTEIGER

@<TRIPOS>ATOM
   1 N    0.0000    0.0000    0.0000 N
   2 H    0.7500    0.4014   -1.2355 H
   3 H    0.7500    0.4014    1.2355 H
   4 H   -1.2990    0.6068    0.4408 H
   5 C   -0.7500   -1.2990    0.0000 C
   6 H   -0.7226   -2.1493    1.2355 H
   7 C   -2.2431   -1.1549    0.0000 C
   8 O   -3.2053   -2.0544    0.7177 O
   9 C   -0.3012   -2.5399   -0.7133 C
  10 H    0.9083   -2.2646   -1.5567 H
  11 H   -1.6599   -2.8687   -1.2571 H
  12 H    0.4527   -3.6107    0.0182 H
  13 N   -2.8886   -0.0368   -0.7636 N
  14 C   -2.4802    0.2586   -2.1763 C
  15 H   -3.9543    0.8062   -0.1281 H
  16 H   -1.2591   -0.5258   -2.5555 H
  17 C   -1.1543    0.9591   -2.2147 C
  18 O   -0.7919    1.9382   -1.1377 O
  19 C   -3.8060   -0.4419   -2.1379 C
  20 H   -4.9061    0.4693   -2.5956 H
  21 H   -4.5213   -0.6517   -0.8363 H
  22 H   -4.1968   -1.5724   -3.0429 H
  23 N   -0.8899   -0.1894   -3.4478 N
  24 C    0.3001   -1.0017   -3.8651 C
  25 H   -1.7318    0.4565   -4.5080 H
  26 H    0.2111   -2.4978   -3.8042 H
  27 C    1.5766   -0.3360   -3.4442 C
  28 O    1.5000    0.8028   -2.4709 O
  29 C   -0.1487   -1.1572   -5.2879 C
  30 H    0.2422   -0.1349   -6.3136 H
  31 H   -1.5034   -1.7266   -5.5890 H
  32 H    0.4389   -2.5369   -5.3224 H
  33 O    2.9261   -0.7534   -3.9488 O
  34 H    3.8593   -1.0372   -2.8093 H

@<TRIPOS>BOND
   1   1   2   1
   1   1   3   1
   1   1   4   1
   1   1   5   1
   1   2  28   4
   1   5   6   1
   1   5   7   1
   1   5   9   1
   1   7   8   2
   1   7  13   1
   1   9  10   1
   1   9  11   1
   1   9  12   1
   1  13  14   1
   1  13  15   1
   1  14  16   1
   1  14  17   1
   1  14  19   1
   1  17  18   2
   1  17  23   1
   1  19  20   1
   1  19  21   1
   1  19  22   1
   1  23  24   1
   1  23  25   1
   1  24  26   1
   1  24  27   1
   1  24  29   1
   1  27  28   2
   1  27  33   1
   1  29  30   1
   1  29  31   1
   1  29  32   1
   1  33  34   1
