@<TRIPOS>MOLECULE
*****
 34 34 0 0 0
SMALL
GASTEIGER

@<TRIPOS>ATOM
   1 N    0.0000    0.0000    0.0000 N
   2 H   -0.0000    0.8817    1.2135 H
   3 H   -1.2990    0.6068   -0.4408 H
   4 H    0.7500    0.4014   -1.2355 H
   5 C   -0.0000   -1.4266    0.4635 C
   6 H    0.8660   -2.4194   -0.2536 H
   7 C   -0.1024   -1.5037    1.9580 C
   8 O    0.3795   -0.3714    2.8158 O
   9 C   -1.4721   -1.6125    0.2437 C
  10 H   -2.0900   -1.3055   -1.0882 H
  11 H   -1.3133   -3.0922    0.4317 H
  12 H   -2.4237   -0.7538    1.0228 H
  13 N   -0.6955   -2.7335    2.5793 N
  14 C   -1.5503   -2.6909    3.8111 C
  15 H   -0.4218   -4.0631    1.9411 H
  16 H   -0.9478   -2.3762    5.1482 H
  17 C   -2.5429   -1.5818    3.9973 C
  18 O   -3.9767   -1.7851    3.6064 O
  19 C   -1.8764   -4.0765    4.2842 C
  20 H   -2.2850   -4.9516    3.1365 H
  21 H   -0.6091   -4.2409    5.0696 H
  22 H   -2.5693   -4.2451    5.6039 H
  23 N   -0.8695   -0.0374    4.6070 N
  24 C    0.3809    0.7690    4.7969 C
  25 H   -2.0177    0.1237    5.5587 H
  26 H   -0.3664    1.7185    5.6858 H
  27 C    0.9273    1.2280    3.4775 C
  28 O   -0.0000    1.7634    2.4271 O
  29 C    1.6856    0.2125    5.2847 C
  30 H    2.8887    0.2263    4.3888 H
  31 H    2.5767    0.8505    6.3088 H
  32 H    1.0056   -1.0792    5.6299 H
  33 O    2.3731    1.2070    3.0783 O
  34 H    2.8047   -0.2258    2.9749 H

@<TRIPOS>BOND
   1   1   2   1
   1   1   3   1
   1   1   4   1
   1   1   5   1
   1   2  28   4
   1   5   6   1
   1   5   7   1
   1   5   9   1
   1   7   8   2
   1   7  13   1
   1   9  10   1
   1   9  11   1
   1   9  12   1
   1  13  14   1
   1  13  15   1
   1  14  16   1
   1  14  17   1
   1  14  19   1
   1  17  18   2
   1  17  23   1
   1  19  20   1
   1  19  21   1
   1  19  22   1
   1  23  24   1
   1  23  25   1
   1  24  26   1
   1  24  27   1
   1  24  29   1
   1  27  28   2
   1  27  33   1
   1  29  30   1
   1  29  31   1
   1  29  32   1
   1  33  34   1
