@<TRIPOS>MOLECULE
*****
 34 34 0 0 0
SMALL
GASTEIGER

@<TRIPOS>ATOM
   1 N    0.0000    0.0000    0.0000 N
   2 H   -0.0000    0.8817    1.2135 H
   3 H    0.7500   -1.0509    0.7636 H
   4 H    0.7500    0.4014   -1.2355 H
   5 C   -1.2990   -0.2318   -0.7133 C
   6 H   -1.1750   -1.3551   -1.6996 H
   7 C   -1.2990    1.1948   -1.1768 C
   8 O   -0.0494    1.8207   -1.7214 O
   9 C   -2.5399   -0.7715   -0.0660 C
  10 H   -3.5523   -1.1697   -1.0988 H
  11 H   -2.5653   -2.1623    0.4951 H
  12 H   -2.9920   -0.2292    1.2574 H
  13 N   -2.5713    1.9842   -1.0859 N
  14 C   -2.5922    2.8243    0.1566 C
  15 H   -3.6532    1.9757   -2.1248 H
  16 H   -1.5037    3.8558    0.1235 H
  17 C   -2.4479    1.5886    0.9945 C
  18 O   -1.3548    0.6050    0.6983 O
  19 C   -3.6770    3.7998    0.5052 C
  20 H   -4.9069    3.5484   -0.3159 H
  21 H   -3.3241    5.1979    0.9185 H
  22 H   -4.8410    3.1005    1.1425 H
  23 N   -3.1096    0.5014    1.4589 N
  24 C   -1.8662   -0.0176    2.1182 C
  25 H   -4.6037    0.3997    1.3733 H
  26 H   -1.0255   -1.0496    1.4267 H
  27 C   -1.2135    1.0501    2.9453 C
  28 O   -0.0000    1.7634    2.4271 O
  29 C   -2.6663   -1.1062    2.7700 C
  30 H   -3.9161   -1.6266    2.1241 H
  31 H   -2.0358   -2.4582    2.9274 H
  32 H   -2.9952   -0.1840    3.9064 H
  33 O   -1.6682    1.5016    4.3015 O
  34 H   -0.6206    2.3470    4.9632 H

@<TRIPOS>BOND
   1   1   2   1
   1   1   3   1
   1   1   4   1
   1   1   5   1
   1   2  28   4
   1   5   6   1
   1   5   7   1
   1   5   9   1
   1   7   8   2
   1   7  13   1
   1   9  10   1
   1   9  11   1
   1   9  12   1
   1  13  14   1
   1  13  15   1
   1  14  16   1
   1  14  17   1
   1  14  19   1
   1  17  18   2
   1  17  23   1
   1  19  20   1
   1  19  21   1
   1  19  22   1
   1  23  24   1
   1  23  25   1
   1  24  26   1
   1  24  27   1
   1  24  29   1
   1  27  28   2
   1  27  33   1
   1  29  30   1
   1  29  31   1
   1  29  32   1
   1  33  34   1
