@<TRIPOS>MOLECULE
*****
 34 34 0 0 0
SMALL
GASTEIGER

@<TRIPOS>ATOM
   1 N    0.0000    0.0000    0.0000 N
   2 H    0.7500    0.4014    1.2355 H
   3 H    0.7500    0.4014   -1.2355 H
   4 H   -1.2990    0.6068    0.4408 H
   5 C   -0.7500   -1.2990    0.0000 C
   6 H   -1.8846   -1.4727   -0.9657 H
   7 C   -1.0170   -1.0191    1.4493 C
   8 O   -1.2876   -2.2900    2.1987 O
   9 C    0.3933   -2.1255   -0.5098 C
  10 H    1.6701   -1.4553   -0.0968 H
  11 H    0.3930   -1.3383   -1.7866 H
  12 H    0.3367   -3.4439    0.2035 H
  13 N   -1.0607    0.3518    2.0564 N
  14 C   -2.1923    1.2098    1.5734 C
  15 H   -0.0903    0.8889    3.0663 H
  16 H   -1.8820    2.0152    0.3466 H
  17 C   -2.3557    1.9222    2.8833 C
  18 O   -3.4291    1.4956    3.8403 O
  19 C   -3.1565    0.0662    1.4623 C
  20 H   -3.0427   -1.0719    2.4328 H
  21 H   -3.5355   -0.4296    0.0983 H
  22 H   -4.5218    0.5529    1.0762 H
  23 N   -0.9128    2.6194    2.1426 N
  24 C    0.2473    3.0149    3.0073 C
  25 H   -2.3055    2.8678    1.6440 H
  26 H   -0.2206    3.4493    4.3646 H
  27 C    1.5274    2.2406    2.8978 C
  28 O    1.5000    0.8028    2.4709 O
  29 C    1.1048    4.2243    2.7787 C
  30 H    2.2972    4.2146    3.6886 H
  31 H    1.2448    3.8516    1.3325 H
  32 H    0.7015    5.6288    3.1175 H
  33 O    2.8982    2.7782    3.1839 O
  34 H    3.8833    1.6620    3.3672 H

@<TRIPOS>BOND
   1   1   2   1
   1   1   3   1
   1   1   4   1
   1   1   5   1
   1   2  28   4
   1   5   6   1
   1   5   7   1
   1   5   9   1
   1   7   8   2
   1   7  13   1
   1   9  10   1
   1   9  11   1
   1   9  12   1
   1  13  14   1
   1  13  15   1
   1  14  16   1
   1  14  17   1
   1  14  19   1
   1  17  18   2
   1  17  23   1
   1  19  20   1
   1  19  21   1
   1  19  22   1
   1  23  24   1
   1  23  25   1
   1  24  26   1
   1  24  27   1
   1  24  29   1
   1  27  28   2
   1  27  33   1
   1  29  30   1
   1  29  31   1
   1  29  32   1
   1  33  34   1
