@<TRIPOS>MOLECULE
*****
 34 34 0 0 0
SMALL
GASTEIGER

@<TRIPOS>ATOM
   1 N    0.0000    0.0000    0.0000 N
   2 H    1.2990   -0.6068    0.4408 H
   3 H    0.7500    0.4014   -1.2355 H
   4 H   -1.2990   -0.7500    0.0000 H
   5 C   -0.0000    0.8817    1.2135 C
   6 H   -0.8713   -0.1061    1.9312 H
   7 C    1.2990    1.1134    1.9268 C
   8 O    2.2423    2.2515    1.6716 O
   9 C   -0.8713    2.1026    1.2135 C
  10 H   -0.8713    2.1026    2.7135 H
  11 H   -0.5438    3.3809    0.5002 H
  12 H   -2.1386    1.8557    0.4500 H
  13 N    1.7478    0.1618    2.9959 N
  14 C    2.0815    0.6601    4.3708 C
  15 H    1.8570   -1.2973    2.6652 H
  16 H    2.7949   -0.2233    5.3509 H
  17 C    3.2677    1.5775    4.3342 C
  18 O    3.2552    2.8514    5.1261 O
  19 C    0.9879    0.8876    5.3719 C
  20 H   -0.4331    0.9279    4.8933 H
  21 H    1.2106    1.8832    6.4716 H
  22 H    0.7546   -0.2598    6.3094 H
  23 N    4.5139   -0.3067    3.1382 N
  24 C    4.8658   -0.4566    1.6877 C
  25 H    4.5873   -1.4822    4.0671 H
  26 H    5.9719    0.5553    1.7389 H
  27 C    3.7222   -0.2299    0.7439 C
  28 O    2.5981   -1.2135    0.8817 O
  29 C    5.4046   -1.8471    1.8495 C
  30 H    5.5639   -2.7067    0.6306 H
  31 H    6.4669   -1.8897    2.9077 H
  32 H    4.9563   -2.6636    3.0253 H
  33 O    3.7690    0.9087   -0.2314 O
  34 H    4.6440    0.5743   -1.4029 H

@<TRIPOS>BOND
   1   1   2   1
   1   1   3   1
   1   1   4   1
   1   1   5   1
   1   2  28   4
   1   5   6   1
   1   5   7   1
   1   5   9   1
   1   7   8   2
   1   7  13   1
   1   9  10   1
   1   9  11   1
   1   9  12   1
   1  13  14   1
   1  13  15   1
   1  14  16   1
   1  14  17   1
   1  14  19   1
   1  17  18   2
   1  17  23   1
   1  19  20   1
   1  19  21   1
   1  19  22   1
   1  23  24   1
   1  23  25   1
   1  24  26   1
   1  24  27   1
   1  24  29   1
   1  27  28   2
   1  27  33   1
   1  29  30   1
   1  29  31   1
   1  29  32   1
   1  33  34   1
