@<TRIPOS>MOLECULE
*****
 34 34 0 0 0
SMALL
GASTEIGER

@<TRIPOS>ATOM
   1 N    0.0000    0.0000    0.0000 N
   2 H   -1.2990    0.6068   -0.4408 H
   3 H    0.7500    1.2990    0.0000 H
   4 H   -0.0000   -0.8817    1.2135 H
   5 C    0.7500    0.4014   -1.2355 C
   6 H    2.0351    1.0893   -0.8815 H
   7 C   -0.4250    1.0746   -1.8806 C
   8 O   -0.4640    2.5634   -1.7017 O
   9 C    1.5136   -0.6165   -2.0297 C
  10 H    2.7866   -0.9944   -1.3322 H
  11 H    1.5123   -0.5146   -3.5263 H
  12 H    1.0680   -2.0317   -2.2500 H
  13 N   -1.4388    0.2599   -2.6280 N
  14 C   -2.3432    0.9201   -3.6261 C
  15 H   -1.6541   -1.2167   -2.4752 H
  16 H   -3.7817    0.5106   -3.7410 H
  17 C   -2.7360    2.0438   -2.7133 C
  18 O   -2.4813    3.4648   -3.1206 O
  19 C   -2.0846    0.3997   -5.0089 C
  20 H   -3.2463    0.2103   -5.9387 H
  21 H   -1.3769    1.3641   -5.9139 H
  22 H   -1.0687   -0.6884   -5.1933 H
  23 N   -4.8427    1.5539   -0.7963 N
  24 C   -4.5130    2.4703    0.3446 C
  25 H   -5.9138    1.0893   -1.7380 H
  26 H   -5.2001    2.2542    1.6603 H
  27 C   -3.0497    2.2701    0.0825 C
  28 O   -2.5981    1.2135   -0.8817 O
  29 C   -5.0823    3.8570    0.3991 C
  30 H   -5.4605    4.3345   -0.9716 H
  31 H   -4.5001    4.8395    1.3716 H
  32 H   -5.8799    4.2939    1.5921 H
  33 O   -1.9364    3.0529    0.7133 O
  34 H   -0.6962    2.9926   -0.1281 H

@<TRIPOS>BOND
   1   1   2   1
   1   1   3   1
   1   1   4   1
   1   1   5   1
   1   2  28   4
   1   5   6   1
   1   5   7   1
   1   5   9   1
   1   7   8   2
   1   7  13   1
   1   9  10   1
   1   9  11   1
   1   9  12   1
   1  13  14   1
   1  13  15   1
   1  14  16   1
   1  14  17   1
   1  14  19   1
   1  17  18   2
   1  17  23   1
   1  19  20   1
   1  19  21   1
   1  19  22   1
   1  23  24   1
   1  23  25   1
   1  24  26   1
   1  24  27   1
   1  24  29   1
   1  27  28   2
   1  27  33   1
   1  29  30   1
   1  29  31   1
   1  29  32   1
   1  33  34   1
