@<TRIPOS>MOLECULE
*****
 34 34 0 0 0
SMALL
GASTEIGER

@<TRIPOS>ATOM
   1 N    0.0000    0.0000    0.0000 N
   2 H    0.7500    1.2990    0.0000 H
   3 H    0.7500   -1.0509   -0.7636 H
   4 H   -1.2990    0.6068   -0.4408 H
   5 C   -0.7500   -0.4014    1.2355 C
   6 H   -2.0351    0.3631    1.3534 H
   7 C    0.4250   -0.2361    2.1531 C
   8 O    0.7092   -1.2512    3.2202 O
   9 C   -0.7226   -1.8392    1.6623 C
  10 H    0.5820   -2.1772    2.3208 H
  11 H   -1.4453   -2.8755    0.8537 H
  12 H   -1.9814   -2.4599    2.1915 H
  13 N    1.3106    0.9628    1.9843 N
  14 C    0.8412    2.3817    1.8562 C
  15 H    2.7776    0.6519    1.9481 H
  16 H    1.8214    3.4913    1.6152 H
  17 C    0.0619    2.8076    0.6473 C
  18 O   -1.3831    2.4278    0.5145 O
  19 C    0.5157    2.9612    3.2008 C
  20 H    1.9117    3.4389    3.4713 H
  21 H   -0.4801    4.0581    3.4355 H
  22 H   -0.2018    2.0972    4.1952 H
  23 N    1.0961    3.4665   -1.2614 N
  24 C    1.7447    3.0470   -2.5473 C
  25 H    0.4112    4.7976   -1.1662 H
  26 H    2.4146    4.0896   -3.3925 H
  27 C    2.3495    2.6429   -1.2355 C
  28 O    1.5000    2.5981    0.0000 O
  29 C    1.0577    2.0246   -3.4032 C
  30 H    2.0251    1.3871   -4.3560 H
  31 H   -0.0199    1.1780   -2.7933 H
  32 H   -0.0617    2.9360   -3.8109 H
  33 O    3.4345    1.6269   -1.4368 O
  34 H    4.5044    1.7730   -0.3957 H

@<TRIPOS>BOND
   1   1   2   1
   1   1   3   1
   1   1   4   1
   1   1   5   1
   1   2  28   4
   1   5   6   1
   1   5   7   1
   1   5   9   1
   1   7   8   2
   1   7  13   1
   1   9  10   1
   1   9  11   1
   1   9  12   1
   1  13  14   1
   1  13  15   1
   1  14  16   1
   1  14  17   1
   1  14  19   1
   1  17  18   2
   1  17  23   1
   1  19  20   1
   1  19  21   1
   1  19  22   1
   1  23  24   1
   1  23  25   1
   1  24  26   1
   1  24  27   1
   1  24  29   1
   1  27  28   2
   1  27  33   1
   1  29  30   1
   1  29  31   1
   1  29  32   1
   1  33  34   1
