@<TRIPOS>MOLECULE
*****
 34 34 0 0 0
SMALL
GASTEIGER

@<TRIPOS>ATOM
   1 N    0.0000    0.0000    0.0000 N
   2 H    0.7500    0.4014    1.2355 H
   3 H   -0.0000   -1.4266   -0.4635 H
   4 H   -1.5000    0.0000    0.0000 H
   5 C    0.7500    0.4014   -1.2355 C
   6 H    1.3019   -0.9885   -1.3520 H
   7 C   -0.3159    1.4070   -1.5558 C
   8 O   -0.9942    1.1946   -2.8767 O
   9 C    2.1359    0.7818   -0.8058 C
  10 H    2.6688    2.0248   -1.4546 H
  11 H    3.2884   -0.0725   -1.2440 H
  12 H    2.3461    1.2888    0.5902 H
  13 N   -0.7236    2.5539   -0.6792 N
  14 C    0.2145    3.7239   -0.7097 C
  15 H   -1.9811    2.4663    0.1339 H
  16 H    1.3576    3.7609   -1.6802 H
  17 C    1.2614    3.8324    0.3591 C
  18 O    2.6361    4.3243    0.0152 O
  19 C   -0.9498    4.6529   -0.8864 C
  20 H   -2.0514    4.8357    0.1151 H
  21 H   -1.9643    4.3319   -1.9437 H
  22 H   -0.1073    5.8899   -0.9871 H
  23 N    2.8586    2.4433    2.6590 N
  24 C    3.9452    1.4241    2.4847 C
  25 H    2.9406    3.4441    3.7734 H
  26 H    4.3593    0.9972    1.1077 H
  27 C    2.9220    0.3277    2.5169 C
  28 O    1.5000    0.8028    2.4709 O
  29 C    4.6979    0.7542    3.5959 C
  30 H    6.1907    0.8299    3.4697 H
  31 H    4.6720   -0.7428    3.6865 H
  32 H    4.6726    1.3735    4.9619 H
  33 O    3.2202   -1.1406    2.5886 O
  34 H    4.2453   -1.5291    1.5647 H

@<TRIPOS>BOND
   1   1   2   1
   1   1   3   1
   1   1   4   1
   1   1   5   1
   1   2  28   4
   1   5   6   1
   1   5   7   1
   1   5   9   1
   1   7   8   2
   1   7  13   1
   1   9  10   1
   1   9  11   1
   1   9  12   1
   1  13  14   1
   1  13  15   1
   1  14  16   1
   1  14  17   1
   1  14  19   1
   1  17  18   2
   1  17  23   1
   1  19  20   1
   1  19  21   1
   1  19  22   1
   1  23  24   1
   1  23  25   1
   1  24  26   1
   1  24  27   1
   1  24  29   1
   1  27  28   2
   1  27  33   1
   1  29  30   1
   1  29  31   1
   1  29  32   1
   1  33  34   1
