@<TRIPOS>MOLECULE
*****
 24 24 0 0 0
SMALL
GASTEIGER

@<TRIPOS>ATOM
   1 N    0.0000    0.0000    0.0000 N
   2 H   -0.7500    1.0509    0.7636 H
   3 C    0.7500    0.4014   -1.2355 C
   4 H    0.7500   -1.0509    0.7636 H
   5 H   -0.7500   -0.4014   -1.2355 H
   6 H    2.0351   -0.3631   -1.3534 H
   7 C    0.7226    1.8392   -1.6623 C
   8 C    0.7226   -0.5108   -2.4259 C
   9 O    0.6758    1.9528   -3.1573 O
  10 H    1.8756   -1.4698   -2.3918 H
  11 H    0.2001   -0.0127   -3.7407 H
  12 H   -0.6028   -0.9922   -2.9371 H
  13 N    0.6916    3.0055   -0.7196 N
  14 H    1.3418    4.2907   -1.1385 H
  15 C    0.0653    3.2394    0.6578 C
  16 H   -0.3528    4.6133    0.2247 H
  17 C   -1.4117    3.4305    0.8365 C
  18 C    0.7481    3.0761    1.9833 C
  19 O   -1.5000    2.1019    1.5271 O
  20 H    2.1776    3.5241    1.9078 H
  21 H   -0.0283    3.2564    3.2541 H
  22 H    0.4077    1.8854    2.8297 H
  23 O   -2.5181    4.4314    0.9915 O
  24 H   -3.4669    4.3274    2.1487 H

@<TRIPOS>BOND
   1   1   2   1
   1   1   3   1
   1   1   4   1
   1   1   5   1
   1   2  19   4
   1   3   6   1
   1   3   7   1
   1   3   8   1
   1   7   9   2
   1   7  13   1
   1   8  10   1
   1   8  11   1
   1   8  12   1
   1  13  14   1
   1  13  15   1
   1  15  16   1
   1  15  17   1
   1  15  18   1
   1  17  19   2
   1  17  23   1
   1  18  20   1
   1  18  21   1
   1  18  22   1
   1  23  24   1
